.LIB demo

.MODEL nmos NMOS (
+LEVEL    = 49             VERSION  = 3.3            TNOM     = 27             
+TOX      = 2.18e-08       XJ       = 1.5e-07        NCH      = 1.7e+17        
+VTH0     = 0.766284       K1       = 0.719298       K2       = 0              
+K3       = 100            K3B      = -10            W0       = 8.89337e-06    
+NLX      = 4.50569e-07    DVT0W    = 0              DVT1W    = 0              
+DVT2W    = -0.032         DVT0     = 1.0321         DVT1     = 0.445706       
+DVT2     = 0              U0       = 0.0748973      UA       = 2.06682e-09    
+UB       = 5.44473e-19    UC       = 3.23153e-11    VSAT     = 139516         
+A0       = 1.49279        AGS      = 0.0900472      B0       = 1.70433e-07    
+B1       = -4.30051e-09   KETA     = -0.00727749    A1       = 0              
+A2       = 1              RDSW     = 363.667        PRWG     = 0.0996686      
+PRWB     = 0.0140903      WR       = 1              WINT     = 4.69032e-08    
+LINT     = 1.09353e-07    XL       = 0              XW       = 0              
+DWG      = -4.39996e-09   DWB      = -1.67886e-08   VOFF     = -0.0938246     
+NFACTOR  = 1.33465        CIT      = 0              CDSC     = 0.00024        
+CDSCD    = 0              CDSCB    = 0              ETA0     = 0.0287797      
+ETAB     = -0.0174275     DSUB     = 0.56           PCLM     = 1.12804        
+PDIBLC1  = 0.0787551      PDIBLC2  = 0.0086         PDIBLCB  = 0              
+DROUT    = 0.56           PSCBE1   = 4.2e+08        PSCBE2   = 5e-05          
+PVAG     = 0.00932328     DELTA    = 0.01           MOBMOD   = 1              
+PRT      = 13.6177        UTE      = -1.97817       KT1      = -0.297089      
+KT1L     = -5.04536e-08   KT2      = 0.0376609      UA1      = 1.12997e-09    
+UB1      = -7.75175e-19   UC1      = -3.79363e-11   AT       = 78208.3        
+NQSMOD   = 0              WL       = 0              WLN      = 1              
+WW       = 0              WWN      = 1              WWL      = 0              
+LL       = 0              LLN      = 1              LW       = 0              
+LWN      = 1              LWL      = 0              CAPMOD   = 2              
+TPB      = 0              TPBSW    = 0              TPBSWG   = 0              
+TCJ      = 0              TCJSW    = 0              TCJSWG   = 0              
+NOFF     = 1              ACDE     = 1              MOIN     = 15             
+PVTH0    = -0.00215142    PK1      = 0.0227542      PK2      = 0.004996       
+PUA      = -1.51414e-10   PRDSW    = 32.6984        PVSAT    = 10030          
+LKETA    = -0.00128138    WKETA    = -0.0656127     PKETA    = 0.0514952      
+LUA1     = 5.41891e-10    LUTE     = 0.0348892      PUA1     = -1.73109e-10   
+PUTE     = -0.00743763    LAT      = -2130.88       WAT      = -19757.8       
+PAT      = 2339.36         )

.ENDL demo

