.MODEL res R (
+tnom     = 27             rsh      = 85.752         dw       = 1.53101e-07    
+dlr      = 1.31e-07       tc1      = 0.000916201    tc2      = 7.70194e-06 )
