* ram2k.sp SPICE FILE


.options acct=2 nomod nodeck vzero=2
+ post=1 probe rawpts=1000

.model nenh NMOS
+VERSION=3.1
+Level=        49
+Tnom=27.0
+RDC=10 RSC=10
+Nch= 2.498E+17  Tox=9E-09 Xj=1.00000E-07
+Lint=9.36e-8 Wint=1.47e-7
+Vth0= .6322    K1= .756  K2= -3.83e-2  K3= -2.612 
+Dvt0= 2.812  Dvt1= 0.462  Dvt2=-9.17e-2 
+Nlx= 3.52291E-08  W0= 1.163e-6 
+K3b= 2.233 
+Vsat= 86301.58  Ua= 6.47e-9  Ub= 4.23e-18  Uc=-4.706281E-11 
+Rdsw= 650  U0= 388.3203 wr=1
+A0= .3496967 Ags=.1    B0=0.546    B1= 1   
+ Dwg = -6.0E-09 Dwb = -3.56E-09 Prwb = -.213
+Keta=-3.605872E-02  A1= 2.778747E-02  A2= .9 
+Voff=-6.735529E-02  NFactor= 1.139926  Cit= 1.622527E-04 
+Cdsc=-2.147181E-05   
+Cdscb= 0  Dvt0w =  0 Dvt1w =  0 Dvt2w =  0 
+ Cdscd =  0 Prwg =  0 
+Eta0= 1.0281729E-02  Etab=-5.042203E-03 
+Dsub= .31871233 
+Pclm= 1.114846  Pdiblc1= 2.45357E-03  Pdiblc2= 6.406289E-03 
+Drout= .31871233  Pscbe1= 5000000  Pscbe2= 5E-09 Pdiblcb = -.234
+Pvag= 0 delta=0.01
+ Wl =  0 Ww = -1.420242E-09 Wwl =  0 
+ Wln =  0 Wwn =  .2613948 Ll =  1.300902E-10 
+ Lw =  0 Lwl =  0 Lln =  .316394 
+ Lwn =  0
+kt1=-.3  kt2=-.051 
+At= 22400 
+Ute=-1.48 
+Ua1= 3.31E-10  Ub1= 2.61E-19 Uc1= -3.42e-10 
+Kt1l=0 Prt=764.3


.model penh PMOS
+Level=        49 
+Tnom=27.0
+RDC=30 RSC=30
+Nch= 3.533024E+17  Tox=9E-09 Xj=1.00000E-07
+Lint=6.23e-8 Wint=1.22e-7
+Vth0=-.6732829 K1= .8362093  K2=-8.606622E-02  K3= 1.82 
+Dvt0= 1.903801  Dvt1= .5333922  Dvt2=-.1862677 
+Nlx= 1.28e-8  W0= 2.1e-6 
+K3b= -0.24 Prwg=-0.001 Prwb=-0.323 
+Vsat= 103503.2  Ua= 1.39995E-09  Ub= 1.e-19  Uc=-2.73e-11 
+ Rdsw= 460  U0= 138.7609 
+A0= .4716551 Ags=0.12 
+Keta=-1.871516E-03  A1= .3417965  A2= 0.83 
+Voff=-.074182  NFactor= 1.54389  Cit=-1.015667E-03 
+Cdsc= 8.937517E-04 
+Cdscb= 1.45e-4  Cdscd=1.04e-4
+ Dvt0w=0.232 Dvt1w=4.5e6 Dvt2w=-0.0023
+Eta0= 6.024776E-02  Etab=-4.64593E-03 
+Dsub= .23222404 
+Pclm= .989  Pdiblc1= 2.07418E-02  Pdiblc2= 1.33813E-3 
+Drout= .3222404  Pscbe1= 118000  Pscbe2= 1E-09 
+Pvag= 0 
+kt1= -0.25  kt2= -0.032 prt=64.5 
+At= 33000 
+Ute= -1.5 
+Ua1= 4.312e-9 Ub1= 6.65e-19  Uc1= 0 
+Kt1l=0




m0 B0_x10 adr7 B0_x11 vss nenh l=1.1e-06 w=2.1e-06
+ as=6.68e-12 ad=7.84e-12 ps=1.355e-05 pd=1.54e-05 
+ nrs=1.52 nrd=1.78 
m1 B0_x10 adr6 B0_x11 vss nenh l=1.1e-06 w=2.1e-06
+ as=6.68e-12 ad=7.84e-12 ps=1.355e-05 pd=1.54e-05 
+ nrs=1.52 nrd=1.78 
m2 B0_x10 adr5 B0_x11 vss nenh l=1.1e-06 w=2.1e-06
+ as=6.68e-12 ad=7.84e-12 ps=1.355e-05 pd=1.54e-05 
+ nrs=1.52 nrd=1.78 
m3 B0_x10 adr4 B0_x11 vss nenh l=1.1e-06 w=2.1e-06
+ as=6.68e-12 ad=7.84e-12 ps=1.355e-05 pd=1.54e-05 
+ nrs=1.52 nrd=1.78 
m4 B0_x8 adr7 B0_x7 vss nenh l=1.1e-06 w=2.1e-06
+ as=7.84e-12 ad=4.54e-12 ps=1.54e-05 pd=9.35e-06 
+ nrs=1.78 nrd=1.03 
m5 B0_x8 adr6 B0_x7 vss nenh l=1.1e-06 w=2.1e-06
+ as=7.84e-12 ad=4.54e-12 ps=1.54e-05 pd=9.35e-06 
+ nrs=1.78 nrd=1.03 
m6 B0_x8 adr5 B0_x7 vss nenh l=1.1e-06 w=2.1e-06
+ as=7.84e-12 ad=4.54e-12 ps=1.54e-05 pd=9.35e-06 
+ nrs=1.78 nrd=1.03 
m7 B0_x8 adr4 B0_x7 vss nenh l=1.1e-06 w=2.1e-06
+ as=7.84e-12 ad=4.54e-12 ps=1.54e-05 pd=9.35e-06 
+ nrs=1.78 nrd=1.03 
m8 B0_x4 adr7 B0_x5 vss nenh l=1.1e-06 w=2.1e-06
+ as=6.68e-12 ad=5.23e-12 ps=1.355e-05 pd=1.027e-05 
+ nrs=1.52 nrd=1.19 
m9 B0_x4 adr6 B0_x5 vss nenh l=1.1e-06 w=2.1e-06
+ as=6.68e-12 ad=5.23e-12 ps=1.355e-05 pd=1.027e-05 
+ nrs=1.52 nrd=1.19 
m10 B0_x4 adr5 B0_x5 vss nenh l=1.1e-06 w=2.1e-06
+ as=6.68e-12 ad=5.23e-12 ps=1.355e-05 pd=1.027e-05 
+ nrs=1.52 nrd=1.19 
m11 B0_x4 adr4 B0_x5 vss nenh l=1.1e-06 w=2.1e-06
+ as=6.68e-12 ad=5.23e-12 ps=1.355e-05 pd=1.027e-05 
+ nrs=1.52 nrd=1.19 
m12 B0_x2 adr7 B0_x1 vss nenh l=1.1e-06 w=2.1e-06
+ as=7.68e-12 ad=4.54e-12 ps=1.493e-05 pd=9.35e-06 
+ nrs=1.74 nrd=1.03 
m13 B0_x2 adr6 B0_x1 vss nenh l=1.1e-06 w=2.1e-06
+ as=7.68e-12 ad=4.54e-12 ps=1.493e-05 pd=9.35e-06 
+ nrs=1.74 nrd=1.03 
m14 B0_x2 adr5 B0_x1 vss nenh l=1.1e-06 w=2.1e-06
+ as=7.68e-12 ad=4.54e-12 ps=1.493e-05 pd=9.35e-06 
+ nrs=1.74 nrd=1.03 
m15 B0_x2 adr4 B0_x1 vss nenh l=1.1e-06 w=2.1e-06
+ as=7.68e-12 ad=4.54e-12 ps=1.493e-05 pd=9.35e-06 
+ nrs=1.74 nrd=1.03 
m16 R0_0__x10 adr6 R0_0__x11 vss nenh l=1.1e-06 w=2.1e-06
+ as=6.68e-12 ad=7.84e-12 ps=1.355e-05 pd=1.54e-05 
+ nrs=1.52 nrd=1.78 
m17 R0_0__x10 adr7 R0_0__x11 vss nenh l=1.1e-06 w=2.1e-06
+ as=6.68e-12 ad=7.84e-12 ps=1.355e-05 pd=1.54e-05 
+ nrs=1.52 nrd=1.78 
m18 R0_0__x10 adr5 R0_0__x11 vss nenh l=1.1e-06 w=2.1e-06
+ as=6.68e-12 ad=7.84e-12 ps=1.355e-05 pd=1.54e-05 
+ nrs=1.52 nrd=1.78 
m19 R0_0__x10 B0_adr4b R0_0__x11 vss nenh l=1.1e-06 w=2.1e-06
+ as=6.68e-12 ad=7.84e-12 ps=1.355e-05 pd=1.54e-05 
+ nrs=1.52 nrd=1.78 
m20 R0_0__x8 adr7 R0_0__x7 vss nenh l=1.1e-06 w=2.1e-06
+ as=5.23e-12 ad=4.54e-12 ps=1.027e-05 pd=9.35e-06 
+ nrs=1.19 nrd=1.03 
m21 R0_0__x8 adr6 R0_0__x7 vss nenh l=1.1e-06 w=2.1e-06
+ as=5.23e-12 ad=4.54e-12 ps=1.027e-05 pd=9.35e-06 
+ nrs=1.19 nrd=1.03 
m22 R0_0__x8 adr5 R0_0__x7 vss nenh l=1.1e-06 w=2.1e-06
+ as=5.23e-12 ad=4.54e-12 ps=1.027e-05 pd=9.35e-06 
+ nrs=1.19 nrd=1.03 
m23 R0_0__x8 B0_adr4b R0_0__x7 vss nenh l=1.1e-06 w=2.1e-06
+ as=5.23e-12 ad=4.54e-12 ps=1.027e-05 pd=9.35e-06 
+ nrs=1.19 nrd=1.03 
m24 R0_0__x4 adr7 R0_0__x5 vss nenh l=1.1e-06 w=2.1e-06
+ as=6.15e-12 ad=5.23e-12 ps=1.145e-05 pd=1.027e-05 
+ nrs=1.39 nrd=1.19 
m25 R0_0__x4 adr6 R0_0__x5 vss nenh l=1.1e-06 w=2.1e-06
+ as=6.15e-12 ad=5.23e-12 ps=1.145e-05 pd=1.027e-05 
+ nrs=1.39 nrd=1.19 
m26 R0_0__x4 adr5 R0_0__x5 vss nenh l=1.1e-06 w=2.1e-06
+ as=6.15e-12 ad=5.23e-12 ps=1.145e-05 pd=1.027e-05 
+ nrs=1.39 nrd=1.19 
m27 R0_0__x4 B0_adr4b R0_0__x5 vss nenh l=1.1e-06 w=2.1e-06
+ as=6.15e-12 ad=5.23e-12 ps=1.145e-05 pd=1.027e-05 
+ nrs=1.39 nrd=1.19 
m28 R0_0__x2 adr7 R0_0__x1 vss nenh l=1.1e-06 w=2.1e-06
+ as=5.06e-12 ad=4.54e-12 ps=9.8e-06 pd=9.35e-06 
+ nrs=1.15 nrd=1.03 
m29 R0_0__x2 adr6 R0_0__x1 vss nenh l=1.1e-06 w=2.1e-06
+ as=5.06e-12 ad=4.54e-12 ps=9.8e-06 pd=9.35e-06 
+ nrs=1.15 nrd=1.03 
m30 R0_0__x2 adr5 R0_0__x1 vss nenh l=1.1e-06 w=2.1e-06
+ as=5.06e-12 ad=4.54e-12 ps=9.8e-06 pd=9.35e-06 
+ nrs=1.15 nrd=1.03 
m31 R0_0__x2 B0_adr4b R0_0__x1 vss nenh l=1.1e-06 w=2.1e-06
+ as=5.06e-12 ad=4.54e-12 ps=9.8e-06 pd=9.35e-06 
+ nrs=1.15 nrd=1.03 
m32 R0_1__x10 adr7 R0_1__x11 vss nenh l=1.1e-06 w=2.1e-06
+ as=6.68e-12 ad=7.84e-12 ps=1.355e-05 pd=1.54e-05 
+ nrs=1.52 nrd=1.78 
m33 R0_1__x10 adr6 R0_1__x11 vss nenh l=1.1e-06 w=2.1e-06
+ as=6.68e-12 ad=7.84e-12 ps=1.355e-05 pd=1.54e-05 
+ nrs=1.52 nrd=1.78 
m34 R0_1__x10 adr4 R0_1__x11 vss nenh l=1.1e-06 w=2.1e-06
+ as=6.68e-12 ad=7.84e-12 ps=1.355e-05 pd=1.54e-05 
+ nrs=1.52 nrd=1.78 
m35 R0_1__x10 adr6b R0_1__x11 vss nenh l=1.1e-06 w=2.1e-06
+ as=6.68e-12 ad=7.84e-12 ps=1.355e-05 pd=1.54e-05 
+ nrs=1.52 nrd=1.78 
m36 R0_1__x8 adr7 R0_1__x7 vss nenh l=1.1e-06 w=2.1e-06
+ as=7.84e-12 ad=6.68e-12 ps=1.54e-05 pd=1.355e-05 
+ nrs=1.78 nrd=1.52 
m37 R0_1__x8 adr6 R0_1__x7 vss nenh l=1.1e-06 w=2.1e-06
+ as=7.84e-12 ad=6.68e-12 ps=1.54e-05 pd=1.355e-05 
+ nrs=1.78 nrd=1.52 
m38 R0_1__x8 adr4 R0_1__x7 vss nenh l=1.1e-06 w=2.1e-06
+ as=7.84e-12 ad=6.68e-12 ps=1.54e-05 pd=1.355e-05 
+ nrs=1.78 nrd=1.52 
m39 R0_1__x8 adr6b R0_1__x7 vss nenh l=1.1e-06 w=2.1e-06
+ as=7.84e-12 ad=6.68e-12 ps=1.54e-05 pd=1.355e-05 
+ nrs=1.78 nrd=1.52 
m40 R0_1__x4 adr7 R0_1__x5 vss nenh l=1.1e-06 w=2.1e-06
+ as=4.54e-12 ad=5.23e-12 ps=9.35e-06 pd=1.027e-05 
+ nrs=1.03 nrd=1.19 
m41 R0_1__x4 adr6 R0_1__x5 vss nenh l=1.1e-06 w=2.1e-06
+ as=4.54e-12 ad=5.23e-12 ps=9.35e-06 pd=1.027e-05 
+ nrs=1.03 nrd=1.19 
m42 R0_1__x4 adr4 R0_1__x5 vss nenh l=1.1e-06 w=2.1e-06
+ as=4.54e-12 ad=5.23e-12 ps=9.35e-06 pd=1.027e-05 
+ nrs=1.03 nrd=1.19 
m43 R0_1__x4 adr6b R0_1__x5 vss nenh l=1.1e-06 w=2.1e-06
+ as=4.54e-12 ad=5.23e-12 ps=9.35e-06 pd=1.027e-05 
+ nrs=1.03 nrd=1.19 
m44 R0_1__x2 adr7 R0_1__x1 vss nenh l=1.1e-06 w=2.1e-06
+ as=5.06e-12 ad=4.54e-12 ps=9.68e-06 pd=9.35e-06 
+ nrs=1.15 nrd=1.03 
m45 R0_1__x2 adr6 R0_1__x1 vss nenh l=1.1e-06 w=2.1e-06
+ as=5.06e-12 ad=4.54e-12 ps=9.68e-06 pd=9.35e-06 
+ nrs=1.15 nrd=1.03 
m46 R0_1__x2 adr4 R0_1__x1 vss nenh l=1.1e-06 w=2.1e-06
+ as=5.06e-12 ad=4.54e-12 ps=9.68e-06 pd=9.35e-06 
+ nrs=1.15 nrd=1.03 
m47 R0_1__x2 adr6b R0_1__x1 vss nenh l=1.1e-06 w=2.1e-06
+ as=5.06e-12 ad=4.54e-12 ps=9.68e-06 pd=9.35e-06 
+ nrs=1.15 nrd=1.03 
m48 R0_2__x10 adr7 R0_2__x11 vss nenh l=1.1e-06 w=2.1e-06
+ as=6.68e-12 ad=7.84e-12 ps=1.355e-05 pd=1.54e-05 
+ nrs=1.52 nrd=1.78 
m49 R0_2__x10 adr6 R0_2__x11 vss nenh l=1.1e-06 w=2.1e-06
+ as=6.68e-12 ad=7.84e-12 ps=1.355e-05 pd=1.54e-05 
+ nrs=1.52 nrd=1.78 
m50 R0_2__x10 adr6b R0_2__x11 vss nenh l=1.1e-06 w=2.1e-06
+ as=6.68e-12 ad=7.84e-12 ps=1.355e-05 pd=1.54e-05 
+ nrs=1.52 nrd=1.78 
m51 R0_2__x10 B0_adr4b R0_2__x11 vss nenh l=1.1e-06 w=2.1e-06
+ as=6.68e-12 ad=7.84e-12 ps=1.355e-05 pd=1.54e-05 
+ nrs=1.52 nrd=1.78 
m52 R0_2__x8 adr7 R0_2__x7 vss nenh l=1.1e-06 w=2.1e-06
+ as=7.84e-12 ad=6.68e-12 ps=1.54e-05 pd=1.355e-05 
+ nrs=1.78 nrd=1.52 
m53 R0_2__x8 adr6 R0_2__x7 vss nenh l=1.1e-06 w=2.1e-06
+ as=7.84e-12 ad=6.68e-12 ps=1.54e-05 pd=1.355e-05 
+ nrs=1.78 nrd=1.52 
m54 R0_2__x8 adr6b R0_2__x7 vss nenh l=1.1e-06 w=2.1e-06
+ as=7.84e-12 ad=6.68e-12 ps=1.54e-05 pd=1.355e-05 
+ nrs=1.78 nrd=1.52 
m55 R0_2__x8 B0_adr4b R0_2__x7 vss nenh l=1.1e-06 w=2.1e-06
+ as=7.84e-12 ad=6.68e-12 ps=1.54e-05 pd=1.355e-05 
+ nrs=1.78 nrd=1.52 
m56 R0_2__x4 adr7 R0_2__x5 vss nenh l=1.1e-06 w=2.1e-06
+ as=4.54e-12 ad=5.23e-12 ps=9.35e-06 pd=1.027e-05 
+ nrs=1.03 nrd=1.19 
m57 R0_2__x4 adr6 R0_2__x5 vss nenh l=1.1e-06 w=2.1e-06
+ as=4.54e-12 ad=5.23e-12 ps=9.35e-06 pd=1.027e-05 
+ nrs=1.03 nrd=1.19 
m58 R0_2__x4 adr6b R0_2__x5 vss nenh l=1.1e-06 w=2.1e-06
+ as=4.54e-12 ad=5.23e-12 ps=9.35e-06 pd=1.027e-05 
+ nrs=1.03 nrd=1.19 
m59 R0_2__x4 B0_adr4b R0_2__x5 vss nenh l=1.1e-06 w=2.1e-06
+ as=4.54e-12 ad=5.23e-12 ps=9.35e-06 pd=1.027e-05 
+ nrs=1.03 nrd=1.19 
m60 R0_2__x2 adr7 R0_2__x1 vss nenh l=1.1e-06 w=2.1e-06
+ as=5.06e-12 ad=4.54e-12 ps=9.8e-06 pd=9.35e-06 
+ nrs=1.15 nrd=1.03 
m61 R0_2__x2 adr6 R0_2__x1 vss nenh l=1.1e-06 w=2.1e-06
+ as=5.06e-12 ad=4.54e-12 ps=9.8e-06 pd=9.35e-06 
+ nrs=1.15 nrd=1.03 
m62 R0_2__x2 adr6b R0_2__x1 vss nenh l=1.1e-06 w=2.1e-06
+ as=5.06e-12 ad=4.54e-12 ps=9.8e-06 pd=9.35e-06 
+ nrs=1.15 nrd=1.03 
m63 R0_2__x2 B0_adr4b R0_2__x1 vss nenh l=1.1e-06 w=2.1e-06
+ as=5.06e-12 ad=4.54e-12 ps=9.8e-06 pd=9.35e-06 
+ nrs=1.15 nrd=1.03 
m64 R0_3__x10 adr7 R0_3__x11 vss nenh l=1.1e-06 w=2.1e-06
+ as=5.21e-12 ad=6.21e-12 ps=1.031e-05 pd=1.213e-05 
+ nrs=1.18 nrd=1.41 
m65 R0_3__x10 adr5 R0_3__x11 vss nenh l=1.1e-06 w=2.1e-06
+ as=5.21e-12 ad=6.21e-12 ps=1.031e-05 pd=1.213e-05 
+ nrs=1.18 nrd=1.41 
m66 R0_3__x10 B0_adr6b R0_3__x11 vss nenh l=1.1e-06 w=2.1e-06
+ as=5.21e-12 ad=6.21e-12 ps=1.031e-05 pd=1.213e-05 
+ nrs=1.18 nrd=1.41 
m67 R0_3__x10 adr4 R0_3__x11 vss nenh l=1.1e-06 w=2.1e-06
+ as=5.21e-12 ad=6.21e-12 ps=1.031e-05 pd=1.213e-05 
+ nrs=1.18 nrd=1.41 
m68 R0_3__x8 adr7 R0_3__x7 vss nenh l=1.1e-06 w=2.1e-06
+ as=6.21e-12 ad=5.35e-12 ps=1.213e-05 pd=1.088e-05 
+ nrs=1.41 nrd=1.21 
m69 R0_3__x8 adr5 R0_3__x7 vss nenh l=1.1e-06 w=2.1e-06
+ as=6.21e-12 ad=5.35e-12 ps=1.213e-05 pd=1.088e-05 
+ nrs=1.41 nrd=1.21 
m70 R0_3__x8 B0_adr6b R0_3__x7 vss nenh l=1.1e-06 w=2.1e-06
+ as=6.21e-12 ad=5.35e-12 ps=1.213e-05 pd=1.088e-05 
+ nrs=1.41 nrd=1.21 
m71 R0_3__x8 adr4 R0_3__x7 vss nenh l=1.1e-06 w=2.1e-06
+ as=6.21e-12 ad=5.35e-12 ps=1.213e-05 pd=1.088e-05 
+ nrs=1.41 nrd=1.21 
m72 R0_3__x4 adr7 R0_3__x5 vss nenh l=1.1e-06 w=2.1e-06
+ as=5.35e-12 ad=6.21e-12 ps=1.088e-05 pd=1.213e-05 
+ nrs=1.21 nrd=1.41 
m73 R0_3__x4 adr5 R0_3__x5 vss nenh l=1.1e-06 w=2.1e-06
+ as=5.35e-12 ad=6.21e-12 ps=1.088e-05 pd=1.213e-05 
+ nrs=1.21 nrd=1.41 
m74 R0_3__x4 B0_adr6b R0_3__x5 vss nenh l=1.1e-06 w=2.1e-06
+ as=5.35e-12 ad=6.21e-12 ps=1.088e-05 pd=1.213e-05 
+ nrs=1.21 nrd=1.41 
m75 R0_3__x4 adr4 R0_3__x5 vss nenh l=1.1e-06 w=2.1e-06
+ as=5.35e-12 ad=6.21e-12 ps=1.088e-05 pd=1.213e-05 
+ nrs=1.21 nrd=1.41 
m76 R0_3__x2 adr7 R0_3__x1 vss nenh l=1.1e-06 w=2.1e-06
+ as=6.04e-12 ad=3.88e-12 ps=1.167e-05 pd=8.5e-06 
+ nrs=1.37 nrd=0.88 
m77 R0_3__x2 adr5 R0_3__x1 vss nenh l=1.1e-06 w=2.1e-06
+ as=6.04e-12 ad=3.88e-12 ps=1.167e-05 pd=8.5e-06 
+ nrs=1.37 nrd=0.88 
m78 R0_3__x2 B0_adr6b R0_3__x1 vss nenh l=1.1e-06 w=2.1e-06
+ as=6.04e-12 ad=3.88e-12 ps=1.167e-05 pd=8.5e-06 
+ nrs=1.37 nrd=0.88 
m79 R0_3__x2 adr4 R0_3__x1 vss nenh l=1.1e-06 w=2.1e-06
+ as=6.04e-12 ad=3.88e-12 ps=1.167e-05 pd=8.5e-06 
+ nrs=1.37 nrd=0.88 
m80 R0_4__x10 adr7 R0_4__x11 vss nenh l=1.1e-06 w=2.1e-06
+ as=5.35e-12 ad=6.21e-12 ps=1.088e-05 pd=1.213e-05 
+ nrs=1.21 nrd=1.41 
m81 R0_4__x10 adr5 R0_4__x11 vss nenh l=1.1e-06 w=2.1e-06
+ as=5.35e-12 ad=6.21e-12 ps=1.088e-05 pd=1.213e-05 
+ nrs=1.21 nrd=1.41 
m82 R0_4__x10 B0_adr6b R0_4__x11 vss nenh l=1.1e-06 w=2.1e-06
+ as=5.35e-12 ad=6.21e-12 ps=1.088e-05 pd=1.213e-05 
+ nrs=1.21 nrd=1.41 
m83 R0_4__x10 B0_adr4b R0_4__x11 vss nenh l=1.1e-06 w=2.1e-06
+ as=5.35e-12 ad=6.21e-12 ps=1.088e-05 pd=1.213e-05 
+ nrs=1.21 nrd=1.41 
m84 R0_4__x8 adr7 R0_4__x7 vss nenh l=1.1e-06 w=2.1e-06
+ as=6.21e-12 ad=5.35e-12 ps=1.213e-05 pd=1.088e-05 
+ nrs=1.41 nrd=1.21 
m85 R0_4__x8 adr5 R0_4__x7 vss nenh l=1.1e-06 w=2.1e-06
+ as=6.21e-12 ad=5.35e-12 ps=1.213e-05 pd=1.088e-05 
+ nrs=1.41 nrd=1.21 
m86 R0_4__x8 B0_adr6b R0_4__x7 vss nenh l=1.1e-06 w=2.1e-06
+ as=6.21e-12 ad=5.35e-12 ps=1.213e-05 pd=1.088e-05 
+ nrs=1.41 nrd=1.21 
m87 R0_4__x8 B0_adr4b R0_4__x7 vss nenh l=1.1e-06 w=2.1e-06
+ as=6.21e-12 ad=5.35e-12 ps=1.213e-05 pd=1.088e-05 
+ nrs=1.41 nrd=1.21 
m88 R0_4__x4 adr7 R0_4__x5 vss nenh l=1.1e-06 w=2.1e-06
+ as=5.35e-12 ad=6.21e-12 ps=1.088e-05 pd=1.213e-05 
+ nrs=1.21 nrd=1.41 
m89 R0_4__x4 adr5 R0_4__x5 vss nenh l=1.1e-06 w=2.1e-06
+ as=5.35e-12 ad=6.21e-12 ps=1.088e-05 pd=1.213e-05 
+ nrs=1.21 nrd=1.41 
m90 R0_4__x4 B0_adr6b R0_4__x5 vss nenh l=1.1e-06 w=2.1e-06
+ as=5.35e-12 ad=6.21e-12 ps=1.088e-05 pd=1.213e-05 
+ nrs=1.21 nrd=1.41 
m91 R0_4__x4 B0_adr4b R0_4__x5 vss nenh l=1.1e-06 w=2.1e-06
+ as=5.35e-12 ad=6.21e-12 ps=1.088e-05 pd=1.213e-05 
+ nrs=1.21 nrd=1.41 
m92 R0_4__x2 adr7 R0_4__x1 vss nenh l=1.1e-06 w=2.1e-06
+ as=6.04e-12 ad=5.35e-12 ps=1.167e-05 pd=1.088e-05 
+ nrs=1.37 nrd=1.21 
m93 R0_4__x2 adr5 R0_4__x1 vss nenh l=1.1e-06 w=2.1e-06
+ as=6.04e-12 ad=5.35e-12 ps=1.167e-05 pd=1.088e-05 
+ nrs=1.37 nrd=1.21 
m94 R0_4__x2 B0_adr6b R0_4__x1 vss nenh l=1.1e-06 w=2.1e-06
+ as=6.04e-12 ad=5.35e-12 ps=1.167e-05 pd=1.088e-05 
+ nrs=1.37 nrd=1.21 
m95 R0_4__x2 B0_adr4b R0_4__x1 vss nenh l=1.1e-06 w=2.1e-06
+ as=6.04e-12 ad=5.35e-12 ps=1.167e-05 pd=1.088e-05 
+ nrs=1.37 nrd=1.21 
m96 R0_5__x10 adr7 R0_5__x11 vss nenh l=1.1e-06 w=2.1e-06
+ as=5.35e-12 ad=2.94e-12 ps=1.088e-05 pd=6.18e-06 
+ nrs=1.21 nrd=0.67 
m97 R0_5__x10 B0_adr6b R0_5__x11 vss nenh l=1.1e-06 w=2.1e-06
+ as=5.35e-12 ad=2.94e-12 ps=1.088e-05 pd=6.18e-06 
+ nrs=1.21 nrd=0.67 
m98 R0_5__x10 adr4 R0_5__x11 vss nenh l=1.1e-06 w=2.1e-06
+ as=5.35e-12 ad=2.94e-12 ps=1.088e-05 pd=6.18e-06 
+ nrs=1.21 nrd=0.67 
m99 R0_5__x10 adr6b R0_5__x11 vss nenh l=1.1e-06 w=2.1e-06
+ as=5.35e-12 ad=2.94e-12 ps=1.088e-05 pd=6.18e-06 
+ nrs=1.21 nrd=0.67 
m100 R0_5__x8 adr7 R0_5__x7 vss nenh l=1.1e-06 w=2.1e-06
+ as=6.21e-12 ad=5.35e-12 ps=1.213e-05 pd=1.088e-05 
+ nrs=1.41 nrd=1.21 
m101 R0_5__x8 B0_adr6b R0_5__x7 vss nenh l=1.1e-06 w=2.1e-06
+ as=6.21e-12 ad=5.35e-12 ps=1.213e-05 pd=1.088e-05 
+ nrs=1.41 nrd=1.21 
m102 R0_5__x8 adr4 R0_5__x7 vss nenh l=1.1e-06 w=2.1e-06
+ as=6.21e-12 ad=5.35e-12 ps=1.213e-05 pd=1.088e-05 
+ nrs=1.41 nrd=1.21 
m103 R0_5__x8 adr6b R0_5__x7 vss nenh l=1.1e-06 w=2.1e-06
+ as=6.21e-12 ad=5.35e-12 ps=1.213e-05 pd=1.088e-05 
+ nrs=1.41 nrd=1.21 
m104 R0_5__x4 adr7 R0_5__x5 vss nenh l=1.1e-06 w=2.1e-06
+ as=5.35e-12 ad=6.21e-12 ps=1.088e-05 pd=1.213e-05 
+ nrs=1.21 nrd=1.41 
m105 R0_5__x4 B0_adr6b R0_5__x5 vss nenh l=1.1e-06 w=2.1e-06
+ as=5.35e-12 ad=6.21e-12 ps=1.088e-05 pd=1.213e-05 
+ nrs=1.21 nrd=1.41 
m106 R0_5__x4 adr4 R0_5__x5 vss nenh l=1.1e-06 w=2.1e-06
+ as=5.35e-12 ad=6.21e-12 ps=1.088e-05 pd=1.213e-05 
+ nrs=1.21 nrd=1.41 
m107 R0_5__x4 adr6b R0_5__x5 vss nenh l=1.1e-06 w=2.1e-06
+ as=5.35e-12 ad=6.21e-12 ps=1.088e-05 pd=1.213e-05 
+ nrs=1.21 nrd=1.41 
m108 R0_5__x2 adr7 R0_5__x1 vss nenh l=1.1e-06 w=2.1e-06
+ as=6.04e-12 ad=5.35e-12 ps=1.167e-05 pd=1.088e-05 
+ nrs=1.37 nrd=1.21 
m109 R0_5__x2 B0_adr6b R0_5__x1 vss nenh l=1.1e-06 w=2.1e-06
+ as=6.04e-12 ad=5.35e-12 ps=1.167e-05 pd=1.088e-05 
+ nrs=1.37 nrd=1.21 
m110 R0_5__x2 adr4 R0_5__x1 vss nenh l=1.1e-06 w=2.1e-06
+ as=6.04e-12 ad=5.35e-12 ps=1.167e-05 pd=1.088e-05 
+ nrs=1.37 nrd=1.21 
m111 R0_5__x2 adr6b R0_5__x1 vss nenh l=1.1e-06 w=2.1e-06
+ as=6.04e-12 ad=5.35e-12 ps=1.167e-05 pd=1.088e-05 
+ nrs=1.37 nrd=1.21 
m112 R0_6__x10 adr7 R0_6__x11 vss nenh l=1.1e-06 w=2.1e-06
+ as=5.35e-12 ad=6.21e-12 ps=1.088e-05 pd=1.213e-05 
+ nrs=1.21 nrd=1.41 
m113 R0_6__x10 B0_adr6b R0_6__x11 vss nenh l=1.1e-06 w=2.1e-06
+ as=5.35e-12 ad=6.21e-12 ps=1.088e-05 pd=1.213e-05 
+ nrs=1.21 nrd=1.41 
m114 R0_6__x10 adr6b R0_6__x11 vss nenh l=1.1e-06 w=2.1e-06
+ as=5.35e-12 ad=6.21e-12 ps=1.088e-05 pd=1.213e-05 
+ nrs=1.21 nrd=1.41 
m115 R0_6__x10 B0_adr4b R0_6__x11 vss nenh l=1.1e-06 w=2.1e-06
+ as=5.35e-12 ad=6.21e-12 ps=1.088e-05 pd=1.213e-05 
+ nrs=1.21 nrd=1.41 
m116 R0_6__x8 adr7 R0_6__x7 vss nenh l=1.1e-06 w=2.1e-06
+ as=6.21e-12 ad=4.28e-12 ps=1.213e-05 pd=9.16e-06 
+ nrs=1.41 nrd=0.97 
m117 R0_6__x8 B0_adr6b R0_6__x7 vss nenh l=1.1e-06 w=2.1e-06
+ as=6.21e-12 ad=4.28e-12 ps=1.213e-05 pd=9.16e-06 
+ nrs=1.41 nrd=0.97 
m118 R0_6__x8 adr6b R0_6__x7 vss nenh l=1.1e-06 w=2.1e-06
+ as=6.21e-12 ad=4.28e-12 ps=1.213e-05 pd=9.16e-06 
+ nrs=1.41 nrd=0.97 
m119 R0_6__x8 B0_adr4b R0_6__x7 vss nenh l=1.1e-06 w=2.1e-06
+ as=6.21e-12 ad=4.28e-12 ps=1.213e-05 pd=9.16e-06 
+ nrs=1.41 nrd=0.97 
m120 R0_6__x4 adr7 R0_6__x5 vss nenh l=1.1e-06 w=2.1e-06
+ as=5.35e-12 ad=6.21e-12 ps=1.088e-05 pd=1.213e-05 
+ nrs=1.21 nrd=1.41 
m121 R0_6__x4 B0_adr6b R0_6__x5 vss nenh l=1.1e-06 w=2.1e-06
+ as=5.35e-12 ad=6.21e-12 ps=1.088e-05 pd=1.213e-05 
+ nrs=1.21 nrd=1.41 
m122 R0_6__x4 adr6b R0_6__x5 vss nenh l=1.1e-06 w=2.1e-06
+ as=5.35e-12 ad=6.21e-12 ps=1.088e-05 pd=1.213e-05 
+ nrs=1.21 nrd=1.41 
m123 R0_6__x4 B0_adr4b R0_6__x5 vss nenh l=1.1e-06 w=2.1e-06
+ as=5.35e-12 ad=6.21e-12 ps=1.088e-05 pd=1.213e-05 
+ nrs=1.21 nrd=1.41 
m124 R0_6__x2 adr7 R0_6__x1 vss nenh l=1.1e-06 w=2.1e-06
+ as=6.04e-12 ad=5.35e-12 ps=1.167e-05 pd=1.088e-05 
+ nrs=1.37 nrd=1.21 
m125 R0_6__x2 B0_adr6b R0_6__x1 vss nenh l=1.1e-06 w=2.1e-06
+ as=6.04e-12 ad=5.35e-12 ps=1.167e-05 pd=1.088e-05 
+ nrs=1.37 nrd=1.21 
m126 R0_6__x2 adr6b R0_6__x1 vss nenh l=1.1e-06 w=2.1e-06
+ as=6.04e-12 ad=5.35e-12 ps=1.167e-05 pd=1.088e-05 
+ nrs=1.37 nrd=1.21 
m127 R0_6__x2 B0_adr4b R0_6__x1 vss nenh l=1.1e-06 w=2.1e-06
+ as=6.04e-12 ad=5.35e-12 ps=1.167e-05 pd=1.088e-05 
+ nrs=1.37 nrd=1.21 
m128 T0_0__x10 adr6 T0_0__x11 vss nenh l=1.1e-06 w=2.1e-06
+ as=6.68e-12 ad=7.84e-12 ps=1.355e-05 pd=1.54e-05 
+ nrs=1.52 nrd=1.78 
m129 T0_0__x10 B0_adr7b T0_0__x11 vss nenh l=1.1e-06 w=2.1e-06
+ as=6.68e-12 ad=7.84e-12 ps=1.355e-05 pd=1.54e-05 
+ nrs=1.52 nrd=1.78 
m130 T0_0__x10 adr5 T0_0__x11 vss nenh l=1.1e-06 w=2.1e-06
+ as=6.68e-12 ad=7.84e-12 ps=1.355e-05 pd=1.54e-05 
+ nrs=1.52 nrd=1.78 
m131 T0_0__x10 adr4 T0_0__x11 vss nenh l=1.1e-06 w=2.1e-06
+ as=6.68e-12 ad=7.84e-12 ps=1.355e-05 pd=1.54e-05 
+ nrs=1.52 nrd=1.78 
m132 T0_0__x8 adr6 T0_0__x7 vss nenh l=1.1e-06 w=2.1e-06
+ as=5.23e-12 ad=4.54e-12 ps=1.027e-05 pd=9.35e-06 
+ nrs=1.19 nrd=1.03 
m133 T0_0__x8 B0_adr7b T0_0__x7 vss nenh l=1.1e-06 w=2.1e-06
+ as=5.23e-12 ad=4.54e-12 ps=1.027e-05 pd=9.35e-06 
+ nrs=1.19 nrd=1.03 
m134 T0_0__x8 adr5 T0_0__x7 vss nenh l=1.1e-06 w=2.1e-06
+ as=5.23e-12 ad=4.54e-12 ps=1.027e-05 pd=9.35e-06 
+ nrs=1.19 nrd=1.03 
m135 T0_0__x8 adr4 T0_0__x7 vss nenh l=1.1e-06 w=2.1e-06
+ as=5.23e-12 ad=4.54e-12 ps=1.027e-05 pd=9.35e-06 
+ nrs=1.19 nrd=1.03 
m136 T0_0__x4 adr6 T0_0__x5 vss nenh l=1.1e-06 w=2.1e-06
+ as=4.54e-12 ad=5.23e-12 ps=9.35e-06 pd=8.98e-06 
+ nrs=1.03 nrd=1.19 
m137 T0_0__x4 B0_adr7b T0_0__x5 vss nenh l=1.1e-06 w=2.1e-06
+ as=4.54e-12 ad=5.23e-12 ps=9.35e-06 pd=8.98e-06 
+ nrs=1.03 nrd=1.19 
m138 T0_0__x4 adr5 T0_0__x5 vss nenh l=1.1e-06 w=2.1e-06
+ as=4.54e-12 ad=5.23e-12 ps=9.35e-06 pd=8.98e-06 
+ nrs=1.03 nrd=1.19 
m139 T0_0__x4 adr4 T0_0__x5 vss nenh l=1.1e-06 w=2.1e-06
+ as=4.54e-12 ad=5.23e-12 ps=9.35e-06 pd=8.98e-06 
+ nrs=1.03 nrd=1.19 
m140 T0_0__x2 adr6 T0_0__x1 vss nenh l=1.1e-06 w=2.1e-06
+ as=5.06e-12 ad=4.54e-12 ps=9.8e-06 pd=9.35e-06 
+ nrs=1.15 nrd=1.03 
m141 T0_0__x2 B0_adr7b T0_0__x1 vss nenh l=1.1e-06 w=2.1e-06
+ as=5.06e-12 ad=4.54e-12 ps=9.8e-06 pd=9.35e-06 
+ nrs=1.15 nrd=1.03 
m142 T0_0__x2 adr5 T0_0__x1 vss nenh l=1.1e-06 w=2.1e-06
+ as=5.06e-12 ad=4.54e-12 ps=9.8e-06 pd=9.35e-06 
+ nrs=1.15 nrd=1.03 
m143 T0_0__x2 adr4 T0_0__x1 vss nenh l=1.1e-06 w=2.1e-06
+ as=5.06e-12 ad=4.54e-12 ps=9.8e-06 pd=9.35e-06 
+ nrs=1.15 nrd=1.03 
m144 T0_1__x10 adr6 T0_1__x11 vss nenh l=1.1e-06 w=2.1e-06
+ as=4.54e-12 ad=5.23e-12 ps=9.35e-06 pd=1.027e-05 
+ nrs=1.03 nrd=1.19 
m145 T0_1__x10 B0_adr7b T0_1__x11 vss nenh l=1.1e-06 w=2.1e-06
+ as=4.54e-12 ad=5.23e-12 ps=9.35e-06 pd=1.027e-05 
+ nrs=1.03 nrd=1.19 
m146 T0_1__x10 adr5 T0_1__x11 vss nenh l=1.1e-06 w=2.1e-06
+ as=4.54e-12 ad=5.23e-12 ps=9.35e-06 pd=1.027e-05 
+ nrs=1.03 nrd=1.19 
m147 T0_1__x10 B0_adr4b T0_1__x11 vss nenh l=1.1e-06 w=2.1e-06
+ as=4.54e-12 ad=5.23e-12 ps=9.35e-06 pd=1.027e-05 
+ nrs=1.03 nrd=1.19 
m148 T0_1__x8 adr6 T0_1__x7 vss nenh l=1.1e-06 w=2.1e-06
+ as=5.23e-12 ad=4.54e-12 ps=1.027e-05 pd=9.35e-06 
+ nrs=1.19 nrd=1.03 
m149 T0_1__x8 B0_adr7b T0_1__x7 vss nenh l=1.1e-06 w=2.1e-06
+ as=5.23e-12 ad=4.54e-12 ps=1.027e-05 pd=9.35e-06 
+ nrs=1.19 nrd=1.03 
m150 T0_1__x8 adr5 T0_1__x7 vss nenh l=1.1e-06 w=2.1e-06
+ as=5.23e-12 ad=4.54e-12 ps=1.027e-05 pd=9.35e-06 
+ nrs=1.19 nrd=1.03 
m151 T0_1__x8 B0_adr4b T0_1__x7 vss nenh l=1.1e-06 w=2.1e-06
+ as=5.23e-12 ad=4.54e-12 ps=1.027e-05 pd=9.35e-06 
+ nrs=1.19 nrd=1.03 
m152 T0_1__x4 adr6 T0_1__x5 vss nenh l=1.1e-06 w=2.1e-06
+ as=4.54e-12 ad=5.23e-12 ps=9.35e-06 pd=1.027e-05 
+ nrs=1.03 nrd=1.19 
m153 T0_1__x4 B0_adr7b T0_1__x5 vss nenh l=1.1e-06 w=2.1e-06
+ as=4.54e-12 ad=5.23e-12 ps=9.35e-06 pd=1.027e-05 
+ nrs=1.03 nrd=1.19 
m154 T0_1__x4 adr5 T0_1__x5 vss nenh l=1.1e-06 w=2.1e-06
+ as=4.54e-12 ad=5.23e-12 ps=9.35e-06 pd=1.027e-05 
+ nrs=1.03 nrd=1.19 
m155 T0_1__x4 B0_adr4b T0_1__x5 vss nenh l=1.1e-06 w=2.1e-06
+ as=4.54e-12 ad=5.23e-12 ps=9.35e-06 pd=1.027e-05 
+ nrs=1.03 nrd=1.19 
m156 T0_1__x2 adr6 T0_1__x1 vss nenh l=1.1e-06 w=2.1e-06
+ as=5.72e-12 ad=4.54e-12 ps=1.027e-05 pd=9.35e-06 
+ nrs=1.3 nrd=1.03 
m157 T0_1__x2 B0_adr7b T0_1__x1 vss nenh l=1.1e-06 w=2.1e-06
+ as=5.72e-12 ad=4.54e-12 ps=1.027e-05 pd=9.35e-06 
+ nrs=1.3 nrd=1.03 
m158 T0_1__x2 adr5 T0_1__x1 vss nenh l=1.1e-06 w=2.1e-06
+ as=5.72e-12 ad=4.54e-12 ps=1.027e-05 pd=9.35e-06 
+ nrs=1.3 nrd=1.03 
m159 T0_1__x2 B0_adr4b T0_1__x1 vss nenh l=1.1e-06 w=2.1e-06
+ as=5.72e-12 ad=4.54e-12 ps=1.027e-05 pd=9.35e-06 
+ nrs=1.3 nrd=1.03 
m160 T0_2__x10 adr6 T0_2__x11 vss nenh l=1.1e-06 w=2.1e-06
+ as=6.68e-12 ad=7.84e-12 ps=1.355e-05 pd=1.54e-05 
+ nrs=1.52 nrd=1.78 
m161 T0_2__x10 B0_adr7b T0_2__x11 vss nenh l=1.1e-06 w=2.1e-06
+ as=6.68e-12 ad=7.84e-12 ps=1.355e-05 pd=1.54e-05 
+ nrs=1.52 nrd=1.78 
m162 T0_2__x10 adr4 T0_2__x11 vss nenh l=1.1e-06 w=2.1e-06
+ as=6.68e-12 ad=7.84e-12 ps=1.355e-05 pd=1.54e-05 
+ nrs=1.52 nrd=1.78 
m163 T0_2__x10 adr6b T0_2__x11 vss nenh l=1.1e-06 w=2.1e-06
+ as=6.68e-12 ad=7.84e-12 ps=1.355e-05 pd=1.54e-05 
+ nrs=1.52 nrd=1.78 
m164 T0_2__x8 adr6 T0_2__x7 vss nenh l=1.1e-06 w=2.1e-06
+ as=5.23e-12 ad=4.54e-12 ps=1.027e-05 pd=9.35e-06 
+ nrs=1.19 nrd=1.03 
m165 T0_2__x8 B0_adr7b T0_2__x7 vss nenh l=1.1e-06 w=2.1e-06
+ as=5.23e-12 ad=4.54e-12 ps=1.027e-05 pd=9.35e-06 
+ nrs=1.19 nrd=1.03 
m166 T0_2__x8 adr4 T0_2__x7 vss nenh l=1.1e-06 w=2.1e-06
+ as=5.23e-12 ad=4.54e-12 ps=1.027e-05 pd=9.35e-06 
+ nrs=1.19 nrd=1.03 
m167 T0_2__x8 adr6b T0_2__x7 vss nenh l=1.1e-06 w=2.1e-06
+ as=5.23e-12 ad=4.54e-12 ps=1.027e-05 pd=9.35e-06 
+ nrs=1.19 nrd=1.03 
m168 T0_2__x4 adr6 T0_2__x5 vss nenh l=1.1e-06 w=2.1e-06
+ as=4.54e-12 ad=5.23e-12 ps=9.35e-06 pd=1.027e-05 
+ nrs=1.03 nrd=1.19 
m169 T0_2__x4 B0_adr7b T0_2__x5 vss nenh l=1.1e-06 w=2.1e-06
+ as=4.54e-12 ad=5.23e-12 ps=9.35e-06 pd=1.027e-05 
+ nrs=1.03 nrd=1.19 
m170 T0_2__x4 adr4 T0_2__x5 vss nenh l=1.1e-06 w=2.1e-06
+ as=4.54e-12 ad=5.23e-12 ps=9.35e-06 pd=1.027e-05 
+ nrs=1.03 nrd=1.19 
m171 T0_2__x4 adr6b T0_2__x5 vss nenh l=1.1e-06 w=2.1e-06
+ as=4.54e-12 ad=5.23e-12 ps=9.35e-06 pd=1.027e-05 
+ nrs=1.03 nrd=1.19 
m172 T0_2__x2 adr6 T0_2__x1 vss nenh l=1.1e-06 w=2.1e-06
+ as=5.06e-12 ad=4.54e-12 ps=9.8e-06 pd=9.35e-06 
+ nrs=1.15 nrd=1.03 
m173 T0_2__x2 B0_adr7b T0_2__x1 vss nenh l=1.1e-06 w=2.1e-06
+ as=5.06e-12 ad=4.54e-12 ps=9.8e-06 pd=9.35e-06 
+ nrs=1.15 nrd=1.03 
m174 T0_2__x2 adr4 T0_2__x1 vss nenh l=1.1e-06 w=2.1e-06
+ as=5.06e-12 ad=4.54e-12 ps=9.8e-06 pd=9.35e-06 
+ nrs=1.15 nrd=1.03 
m175 T0_2__x2 adr6b T0_2__x1 vss nenh l=1.1e-06 w=2.1e-06
+ as=5.06e-12 ad=4.54e-12 ps=9.8e-06 pd=9.35e-06 
+ nrs=1.15 nrd=1.03 
m176 T0_3__x10 adr6 T0_3__x11 vss nenh l=1.1e-06 w=2.1e-06
+ as=6.68e-12 ad=7.84e-12 ps=1.355e-05 pd=1.54e-05 
+ nrs=1.52 nrd=1.78 
m177 T0_3__x10 B0_adr7b T0_3__x11 vss nenh l=1.1e-06 w=2.1e-06
+ as=6.68e-12 ad=7.84e-12 ps=1.355e-05 pd=1.54e-05 
+ nrs=1.52 nrd=1.78 
m178 T0_3__x10 adr6b T0_3__x11 vss nenh l=1.1e-06 w=2.1e-06
+ as=6.68e-12 ad=7.84e-12 ps=1.355e-05 pd=1.54e-05 
+ nrs=1.52 nrd=1.78 
m179 T0_3__x10 B0_adr4b T0_3__x11 vss nenh l=1.1e-06 w=2.1e-06
+ as=6.68e-12 ad=7.84e-12 ps=1.355e-05 pd=1.54e-05 
+ nrs=1.52 nrd=1.78 
m180 T0_3__x8 adr6 T0_3__x7 vss nenh l=1.1e-06 w=2.1e-06
+ as=7.84e-12 ad=6.68e-12 ps=1.54e-05 pd=1.355e-05 
+ nrs=1.78 nrd=1.52 
m181 T0_3__x8 B0_adr7b T0_3__x7 vss nenh l=1.1e-06 w=2.1e-06
+ as=7.84e-12 ad=6.68e-12 ps=1.54e-05 pd=1.355e-05 
+ nrs=1.78 nrd=1.52 
m182 T0_3__x8 adr6b T0_3__x7 vss nenh l=1.1e-06 w=2.1e-06
+ as=7.84e-12 ad=6.68e-12 ps=1.54e-05 pd=1.355e-05 
+ nrs=1.78 nrd=1.52 
m183 T0_3__x8 B0_adr4b T0_3__x7 vss nenh l=1.1e-06 w=2.1e-06
+ as=7.84e-12 ad=6.68e-12 ps=1.54e-05 pd=1.355e-05 
+ nrs=1.78 nrd=1.52 
m184 T0_3__x4 adr6 T0_3__x5 vss nenh l=1.1e-06 w=2.1e-06
+ as=4.54e-12 ad=5.23e-12 ps=9.35e-06 pd=1.027e-05 
+ nrs=1.03 nrd=1.19 
m185 T0_3__x4 B0_adr7b T0_3__x5 vss nenh l=1.1e-06 w=2.1e-06
+ as=4.54e-12 ad=5.23e-12 ps=9.35e-06 pd=1.027e-05 
+ nrs=1.03 nrd=1.19 
m186 T0_3__x4 adr6b T0_3__x5 vss nenh l=1.1e-06 w=2.1e-06
+ as=4.54e-12 ad=5.23e-12 ps=9.35e-06 pd=1.027e-05 
+ nrs=1.03 nrd=1.19 
m187 T0_3__x4 B0_adr4b T0_3__x5 vss nenh l=1.1e-06 w=2.1e-06
+ as=4.54e-12 ad=5.23e-12 ps=9.35e-06 pd=1.027e-05 
+ nrs=1.03 nrd=1.19 
m188 T0_3__x2 adr6 T0_3__x1 vss nenh l=1.1e-06 w=2.1e-06
+ as=5.06e-12 ad=4.54e-12 ps=9.8e-06 pd=9.35e-06 
+ nrs=1.15 nrd=1.03 
m189 T0_3__x2 B0_adr7b T0_3__x1 vss nenh l=1.1e-06 w=2.1e-06
+ as=5.06e-12 ad=4.54e-12 ps=9.8e-06 pd=9.35e-06 
+ nrs=1.15 nrd=1.03 
m190 T0_3__x2 adr6b T0_3__x1 vss nenh l=1.1e-06 w=2.1e-06
+ as=5.06e-12 ad=4.54e-12 ps=9.8e-06 pd=9.35e-06 
+ nrs=1.15 nrd=1.03 
m191 T0_3__x2 B0_adr4b T0_3__x1 vss nenh l=1.1e-06 w=2.1e-06
+ as=5.06e-12 ad=4.54e-12 ps=9.8e-06 pd=9.35e-06 
+ nrs=1.15 nrd=1.03 
m192 T0_4__x10 B0_adr7b T0_4__x11 vss nenh l=1.1e-06 w=2.1e-06
+ as=5.35e-12 ad=6.21e-12 ps=1.088e-05 pd=1.213e-05 
+ nrs=1.21 nrd=1.41 
m193 T0_4__x10 adr5 T0_4__x11 vss nenh l=1.1e-06 w=2.1e-06
+ as=5.35e-12 ad=6.21e-12 ps=1.088e-05 pd=1.213e-05 
+ nrs=1.21 nrd=1.41 
m194 T0_4__x10 B0_adr6b T0_4__x11 vss nenh l=1.1e-06 w=2.1e-06
+ as=5.35e-12 ad=6.21e-12 ps=1.088e-05 pd=1.213e-05 
+ nrs=1.21 nrd=1.41 
m195 T0_4__x10 adr4 T0_4__x11 vss nenh l=1.1e-06 w=2.1e-06
+ as=5.35e-12 ad=6.21e-12 ps=1.088e-05 pd=1.213e-05 
+ nrs=1.21 nrd=1.41 
m196 T0_4__x8 B0_adr7b T0_4__x7 vss nenh l=1.1e-06 w=2.1e-06
+ as=6.04e-12 ad=5.35e-12 ps=1.155e-05 pd=1.088e-05 
+ nrs=1.37 nrd=1.21 
m197 T0_4__x8 adr5 T0_4__x7 vss nenh l=1.1e-06 w=2.1e-06
+ as=6.04e-12 ad=5.35e-12 ps=1.155e-05 pd=1.088e-05 
+ nrs=1.37 nrd=1.21 
m198 T0_4__x8 B0_adr6b T0_4__x7 vss nenh l=1.1e-06 w=2.1e-06
+ as=6.04e-12 ad=5.35e-12 ps=1.155e-05 pd=1.088e-05 
+ nrs=1.37 nrd=1.21 
m199 T0_4__x8 adr4 T0_4__x7 vss nenh l=1.1e-06 w=2.1e-06
+ as=6.04e-12 ad=5.35e-12 ps=1.155e-05 pd=1.088e-05 
+ nrs=1.37 nrd=1.21 
m200 T0_4__x4 B0_adr7b T0_4__x5 vss nenh l=1.1e-06 w=2.1e-06
+ as=5.35e-12 ad=6.21e-12 ps=1.088e-05 pd=1.213e-05 
+ nrs=1.21 nrd=1.41 
m201 T0_4__x4 adr5 T0_4__x5 vss nenh l=1.1e-06 w=2.1e-06
+ as=5.35e-12 ad=6.21e-12 ps=1.088e-05 pd=1.213e-05 
+ nrs=1.21 nrd=1.41 
m202 T0_4__x4 B0_adr6b T0_4__x5 vss nenh l=1.1e-06 w=2.1e-06
+ as=5.35e-12 ad=6.21e-12 ps=1.088e-05 pd=1.213e-05 
+ nrs=1.21 nrd=1.41 
m203 T0_4__x4 adr4 T0_4__x5 vss nenh l=1.1e-06 w=2.1e-06
+ as=5.35e-12 ad=6.21e-12 ps=1.088e-05 pd=1.213e-05 
+ nrs=1.21 nrd=1.41 
m204 T0_4__x2 B0_adr7b T0_4__x1 vss nenh l=1.1e-06 w=2.1e-06
+ as=6.04e-12 ad=5.35e-12 ps=1.167e-05 pd=1.088e-05 
+ nrs=1.37 nrd=1.21 
m205 T0_4__x2 adr5 T0_4__x1 vss nenh l=1.1e-06 w=2.1e-06
+ as=6.04e-12 ad=5.35e-12 ps=1.167e-05 pd=1.088e-05 
+ nrs=1.37 nrd=1.21 
m206 T0_4__x2 B0_adr6b T0_4__x1 vss nenh l=1.1e-06 w=2.1e-06
+ as=6.04e-12 ad=5.35e-12 ps=1.167e-05 pd=1.088e-05 
+ nrs=1.37 nrd=1.21 
m207 T0_4__x2 adr4 T0_4__x1 vss nenh l=1.1e-06 w=2.1e-06
+ as=6.04e-12 ad=5.35e-12 ps=1.167e-05 pd=1.088e-05 
+ nrs=1.37 nrd=1.21 
m208 T0_5__x10 B0_adr7b T0_5__x11 vss nenh l=1.1e-06 w=2.1e-06
+ as=5.35e-12 ad=6.21e-12 ps=1.088e-05 pd=1.213e-05 
+ nrs=1.21 nrd=1.41 
m209 T0_5__x10 adr5 T0_5__x11 vss nenh l=1.1e-06 w=2.1e-06
+ as=5.35e-12 ad=6.21e-12 ps=1.088e-05 pd=1.213e-05 
+ nrs=1.21 nrd=1.41 
m210 T0_5__x10 B0_adr6b T0_5__x11 vss nenh l=1.1e-06 w=2.1e-06
+ as=5.35e-12 ad=6.21e-12 ps=1.088e-05 pd=1.213e-05 
+ nrs=1.21 nrd=1.41 
m211 T0_5__x10 B0_adr4b T0_5__x11 vss nenh l=1.1e-06 w=2.1e-06
+ as=5.35e-12 ad=6.21e-12 ps=1.088e-05 pd=1.213e-05 
+ nrs=1.21 nrd=1.41 
m212 T0_5__x8 B0_adr7b T0_5__x7 vss nenh l=1.1e-06 w=2.1e-06
+ as=6.21e-12 ad=5.35e-12 ps=1.213e-05 pd=1.088e-05 