* Two Input OR Gate

.verilog "or.va"

* Input Waveforms
vin1 in1 0 pulse(0 5 0u 10n 10n 1u 2u)
vin2 in2 0 pulse(0 5 2u 10n 10n 2u 4u)

* Instance Or 
YVLG_OR in1 in2 out V_or

* Output Loading
RLoad out 0 1MEG

* Analysis
.tran 100n 7u

* Print Waveforms
.print v(in1) v(in2) v(out)
*.iplot v(in1) v(in2) @YVLG_OR[V(out)]

.end
