*********************************************************************
.MODEL HBTn npn LEVEL=20
+ TNOM = 27   SELFT = sh  
+ RBX = 0.183 RBI = 15.4 RCX = 6.27 RCI = 10.0   
+ RE = 2.53   REX = 1.0 BF = 120.0 BR = 4.6e-2 
+ ICS = 3.42e-10 ICRIT0 = 910.0 ITC = 1.4e-2 ITC2 = 1.35e-2  
+ IS = 2.1E-24   ISA = 2.03e-2 ISB = 3e-14 ISC = 7e-17   
+ ISCX = 0.98e-12 ISE = 1E-20  ISEX = 4e-13  IK = 2.63e-2
+ NA = 3.4     NB = 1.76    NC = 2.79    NCX = 2.67   NE = 24.5      
+ NEX = 3.36   NF = 1.04    NR = 1.072
+ VAF = 21.73  VAR = 2.997   VTC = 0.663  
+ FA = 0.89    BVC = 997.0   NBC = 8.05    NCS = 14.07
+ CJE = 2.2e-14  VJE = 0.915  MJE = 5.5e-2  CEMIN = 2.02e-14  FCE = 0.59
+ CJC = 1.8e-14  VJC = 1.087  MJC = 0.35    CCMIN = 1.6e-14   FC = 0.79
+ CJCX = 1.2e-14 VJCX = 1.075 MJCX = 0.35   CXMIN = 1e-14  
+ XCJC = 0.79   CJS = 2.4e-16  VJS = 2.0  MJS = 1e-3  
+ TFB = 2.5e-14 TFC0 = 7e-13  TKRK = 1e-18  VKRK = 1000.0 
+ IKRK = 1000.0  FEX = 1.9e-2  RTH = 1300.0  CTH = 100p  
+ XTI = 5.1    XTB =-2.5     EG = 1.393  DTMAX = 1000.0
+ KFN = kfn    AFN = 1.02    BFN = 1.0   EXPLI = 100mA

*********************************************************************
.MODEL HBTp pnp LEVEL=20
+ TNOM = 27   SELFT = sh  
+ RBX = 0.183 RBI = 15.4 RCX = 6.27 RCI = 10.0   
+ RE = 2.53   REX = 1.0 BF = 120.0 BR = 4.6e-2 
+ ICS = 3.42e-10 ICRIT0 = 910.0 ITC = 1.4e-2 ITC2 = 1.35e-2  
+ IS = 2.1E-24   ISA = 2.03e-2 ISB = 3e-14 ISC = 7e-17   
+ ISCX = 0.98e-12 ISE = 1E-20  ISEX = 4e-13  IK = 2.63e-2
+ NA = 3.4     NB = 1.76    NC = 2.79    NCX = 2.67   NE = 24.5      
+ NEX = 3.36   NF = 1.04    NR = 1.072
+ VAF = 21.73  VAR = 2.997   VTC = 0.663  
+ FA = 0.89    BVC = 997.0   NBC = 8.05    NCS = 14.07
+ CJE = 2.2e-14  VJE = 0.915  MJE = 5.5e-2  CEMIN = 2.02e-14  FCE = 0.59
+ CJC = 1.8e-14  VJC = 1.087  MJC = 0.35    CCMIN = 1.6e-14   FC = 0.79
+ CJCX = 1.2e-14 VJCX = 1.075 MJCX = 0.35   CXMIN = 1e-14  
+ XCJC = 0.79   CJS = 2.4e-16  VJS = 2.0  MJS = 1e-3  
+ TFB = 2.5e-14 TFC0 = 7e-13  TKRK = 1e-18  VKRK = 1000.0 
+ IKRK = 1000.0  FEX = 1.9e-2  RTH = 1300.0  CTH = 100p  
+ XTI = 5.1    XTB =-2.5     EG = 1.393  DTMAX = 1000.0
+ KFN = kfn    AFN = 1.02    BFN = 1.0   EXPLI = 100mA
**********************************************************************
