*****  CMOSN.1 = NMOS model validated for 0.8um<=W<=100um; 0.7um<=L<=100um; temperature range: -35C<=T<=145C       *****
*****  CMOSN.2 = NMOS model validated for 0.75um<=W<0.8um; 0.65um<=L<=100um; temperature range: -35C<=T<=145C      *****
*****  CMOSN.3 = NMOS model validated for 0.8um<=W<=100um; 0.65um<=L<0.7um; temperature range: -35C<=T<=145C       *****
*****  CMOSP   = PMOS model validated for 0.75um<=W<=100um; 0.7um<=L<=100um; temperature range: -35C<=T<=145C      *****
*****  BIAS RANGE: VDSmax=5V;  VGSmax=5V;   VBSmax=-3.5V for nmos models                                          *****
*****              VDSmax=-5V; VGSmax=-5V;  VBSmax=3.5V  for pmos model                                           *****
*.LIB SBCD_RF                                                        
*
.MODEL CMOSN.1 nmos (                               LEVEL   = 53                  
+VERSION = 3.2            TNOM    = 27             TOX     = 1.5E-8             
+XJ      = 3E-7           NCH     = 1.7E17         VTH0    = 0.62833            
+K1      = 0.814102       K2      = -8.93024E-5    K3      = 1.0002E-3          
+K3B     = 0.0225003      W0      = 1.49327E-5     NLX     = 1.84869E-7         
+DVT0W   = 0              DVT1W   = 0              DVT2W   = -0.032             
+DVT0    = 1.77896        DVT1    = 0.360795       DVT2    = -0.0567498         
+U0      = 0.0775            UA      = 1E-10          UB      = 3.01709E-20        
+UC      = 7.86458E-11    VSAT    = 1.14433E5      A0      = 1.27682            
+AGS     = 0.155051       B0      = 1.45758E-8     B1      = 2.94591E-8         
+KETA    = -2.5E-3        A1      = 0              A2      = 1                  
+RDSW    = 2.53841E3      PRWG    = -0.0402757     PRWB    = -0.0247623         
+WR      = 1              WINT    = -0.16E-6          LINT    = 0         
+DWG     = -8.16115E-9    DWB     = 9.99613E-9     VOFF    = -0.0963267         
+NFACTOR = 0.687597       CIT     = 0              CDSC    = -9.97756E-4        
+CDSCD   = 0              CDSCB   = 1.29561E-5     ETA0    = 9.14052E-4         
+ETAB    = 0              DSUB    = 0.56           PCLM    = 0.01               
+PDIBLC1 = 0.158698       PDIBLC2 = 7.42584E-3     PDIBLCB = 0                  
+DROUT   = 0.664606       PSCBE1  = 3.7164E8       PSCBE2  = 6.14758E-5         
+PVAG    = 0.168023       DELTA   = 0.0325439      HDIF    = 2.23E-6            
+JS      = 3.593E-4       MOBMOD  = 1              PRT     = 2.04136E3          
+UTE     = -1.99984       KT1     = -0.503177      KT1L    = -2.79294E-8        
+KT2     = -0.0680013     UA1     = 2.00068E-11    UB1     = -1.79967E-18       
+UC1     = -5.39984E-11   AT      = 6.139E4        NQSMOD  = 0                  
+WL      = 0              WLN     = 1              WW      = 0                  
+WWN     = 1              WWL     = 0              LL      = 0                  
+LLN     = 1              LW      = 0              LWN     = 1                  
+LWL     = 0              CAPMOD  = 3              CGDO    = 1.35E-10           
+CGSO    = 1.35E-10       CJ      = 6.072056E-4    PB      = 0.8012252          
+MJ      = 0.3594499      CJSW    = 1.492982E-10   PBSW    = 0.8009875          
+MJSW    = 0.1931245      TCJ     = 1.771367E-3    TPB     = 1.296688E-3        
+TCJSW   = 1.450204E-3    TPBSW   = 1.51525E-3     WMIN    = 8E-7               
+WMAX    = 0.10001        LMIN    = 7E-7           LMAX    = 1.0001E-4          
+BINUNIT = 1              PKETA   = 0.013          PA0     = -0.398858          
+PAGS    = -1.01465       PRDSW   = -522.908       PUA     = -2.22813E-10       
+PUC     = -3.67416E-11   WUTE    = -0.128196      WUA1    = -1.6089E-9         
+WUC1    = 1.23331E-11    PAT     = -9.8E4         PVTH0   = 2.29445E-3         
+WUB1    = 2.2237E-18     PVSAT   = 4.0666E4       PUB     = -4.36966E-19       
+PK1     = 0.0155517      NJ      = 1.535          PVOFF   = -0.0190135      )  
*                                                                               
.MODEL CMOSN.2 nmos (                               LEVEL   = 53                  
+VERSION = 3.2            TNOM    = 27             TOX     = 1.5E-8             
+XJ      = 3E-7           NCH     = 1.7E17         VTH0    = 0.62833            
+K1      = 0.814102       K2      = -8.93024E-5    K3      = 9.84988E-4         
+K3B     = 0.0225003      W0      = 1.53079E-5     NLX     = 1.84869E-7         
+DVT0W   = 0              DVT1W   = 0              DVT2W   = -0.032             
+DVT0    = 1.77896        DVT1    = 0.360795       DVT2    = -0.0567498         
+U0      = 0.0775            UA      = 1E-10          UB      = 3.01709E-20        
+UC      = 7.86458E-11    VSAT    = 1.14433E5      A0      = 1.27682            
+AGS     = 0.155051       B0      = 4.11844E-8     B1      = -5.48183E-8        
+KETA    = 0.0125         A1      = 0              A2      = 1                  
+RDSW    = 2.53841E3      PRWG    = -0.0402757     PRWB    = -0.0247623         
+WR      = 1              WINT    = -0.16E-6          LINT    = 0         
+DWG     = -6E-9          DWB     = 4E-9           VOFF    = -0.0963267         
+NFACTOR = 0.687597       CIT     = 0              CDSC    = -9.97756E-4        
+CDSCD   = 0              CDSCB   = 1.29561E-5     ETA0    = 9.93223E-4         
+ETAB    = 0              DSUB    = 0.56           PCLM    = 0.730467           
+PDIBLC1 = 0.153113       PDIBLC2 = 8.65648E-3     PDIBLCB = 0                  
+DROUT   = 0.66187        PSCBE1  = 3.73008E8      PSCBE2  = 5E-5               
+PVAG    = 0.0202057      DELTA   = 0.0643339      HDIF    = 2.23E-6            
+JS      = 3.593E-4       MOBMOD  = 1              PRT     = 2.081263E3         
+UTE     = -1.99984       KT1     = -0.503177      KT1L    = 3.044921E-8        
+KT2     = -0.0680013     UA1     = 2.00068E-11    UB1     = -1.79967E-18       
+UC1     = -5.39984E-11   AT      = 6.139E4        NQSMOD  = 0                  
+WL      = 0              WLN     = 1              WW      = 0                  
+WWN     = 1              WWL     = 0              LL      = 0                  
+LLN     = 1              LW      = 0              LWN     = 1                  
+LWL     = 0              CAPMOD  = 3              CGDO    = 1.35E-10           
+CGSO    = 1.35E-10       CJ      = 6.072056E-4    PB      = 0.8012252          
+MJ      = 0.3594499      CJSW    = 1.492982E-10   PBSW    = 0.8009875          
+MJSW    = 0.1931245      TCJ     = 1.771367E-3    TPB     = 1.296688E-3        
+TCJSW   = 1.450204E-3    TPBSW   = 1.51525E-3     WMIN    = 7.5E-7             
+WMAX    = 8E-7           LMIN    = 6.5E-7         LMAX    = 1.0001E-4          
+BINUNIT = 1              PKETA   = -5E-3          PRDSW   = -80.9347           
+PUA     = -5.18781E-10   PUC     = -1.02896E-10   WUTE    = 0.357326           
+WUA1    = 1.023201E-9    WUC1    = 4.999648E-11   PVTH0   = -5.86195E-3        
+WUB1    = -5.92257E-19   PVSAT   = 1.06488E3      PUB     = -6.9E-19           
+PK1     = 2.9587E-3      NJ      = 1.535          PVOFF   = -8.56537E-3     )  
*                                                                               
.MODEL CMOSN.3 nmos (                               LEVEL   = 53                  
+VERSION = 3.2            TNOM    = 27             TOX     = 1.5E-8             
+XJ      = 3E-7           NCH     = 1.7E17         VTH0    = 0.62833            
+K1      = 0.814102       K2      = -8.93024E-5    K3      = 1.0002E-3          
+K3B     = 0.0225003      W0      = 1.49327E-5     NLX     = 2.4205E-7          
+DVT0W   = 0              DVT1W   = 0              DVT2W   = -0.032             
+DVT0    = 2.17739        DVT1    = 0.359787       DVT2    = -0.1               
+U0      = 0.0775            UA      = 1E-10          UB      = 3.01709E-20        
+UC      = 7.86458E-11    VSAT    = 1.13192E5      A0      = 1.27682            
+AGS     = 0.155051       B0      = 2.71824E-6     B1      = -1.00267E-5        
+KETA    = 9.5E-3         A1      = 0              A2      = 1                  
+RDSW    = 2.18783E3      PRWG    = -0.0454778     PRWB    = 1.35621E-3         
+WR      = 1              WINT    = -0.16E-6          LINT    = 0         
+DWG     = -8.16115E-9    DWB     = 9.99613E-9     VOFF    = -0.0963267         
+NFACTOR = 0.687597       CIT     = 0              CDSC    = 9.20051E-6         
+CDSCD   = 0              CDSCB   = 4.22187E-6     ETA0    = 7.16136E-4         
+ETAB    = -0.026         DSUB    = 0.56           PCLM    = 8.27662E-3         
+PDIBLC1 = 0.167693       PDIBLC2 = 7.71669E-3     PDIBLCB = 0                  
+DROUT   = 0.619584       PSCBE1  = 3.81284E8      PSCBE2  = 5E-5               
+PVAG    = 0.725286       DELTA   = 0.0425246      HDIF    = 2.23E-6            
+JS      = 3.593E-4       MOBMOD  = 1              PRT     = 1.72113E3          
+UTE     = -1.99984       KT1     = -0.503177      KT1L    = 4.38082E-8         
+KT2     = -0.033462      UA1     = 2.00068E-11    UB1     = -1.79967E-18       
+UC1     = -5.39984E-11   AT      = 1.981E4        NQSMOD  = 0                  
+WL      = 0              WLN     = 1              WW      = 0                  
+WWN     = 1              WWL     = 0              LL      = 0                  
+LLN     = 1              LW      = 0              LWN     = 1                  
+LWL     = 0              CAPMOD  = 3              CGDO    = 1.35E-10           
+CGSO    = 1.35E-10       CJ      = 6.072056E-4    PB      = 0.8012252          
+MJ      = 0.3594499      CJSW    = 1.492982E-10   PBSW    = 0.8009875          
+MJSW    = 0.1931245      TCJ     = 1.771367E-3    TPB     = 1.296688E-3        
+TCJSW   = 1.450204E-3    TPBSW   = 1.51525E-3     WMIN    = 8E-7               
+WMAX    = 0.10001        LMIN    = 6.5E-7         LMAX    = 7E-7               
+BINUNIT = 1              PKETA   = -0.012         PA0     = 0                  
+PAGS    = 0              PRDSW   = -273.959       PUA     = -1.86841E-10       
+PUC     = -2.75889E-11   WUTE    = 0.464497       WUA1    = 1.11306E-9         
+WUC1    = -7.34145E-11   PVTH0   = -3.0866E-3     WUB1    = -2.39801E-18       
+PVSAT   = 0.0212717      PUB     = -1.26733E-19   PK1     = 2.20985E-4         
+NJ      = 1.535          PVOFF   = -1.35506E-3     )                           
*
.MODEL CMOSP pmos (                                 LEVEL   = 53                  
+VERSION = 3.2            TNOM    = 27             TOX     = 1.5E-8             
+XJ      = 2E-7           NCH     = 1.7E17         VTH0    = -0.745367          
+K1      = 0.713195       K2      = 0              K3      = 1.00579E-4         
+K3B     = 0.0222172      W0      = 4.33738E-5     NLX     = 9.02643E-8         
+DVT0W   = 0              DVT1W   = 0              DVT2W   = -0.032             
+DVT0    = 0.435933       DVT1    = 0.127277       DVT2    = -6.71036E-3        
+U0      = 0.04336            UA      = 5.51374E-9     UB      = 7.69972E-20        
+UC      = -9.07465E-11   VSAT    = 1.87208E5      A0      = 1.7205             
+AGS     = 0.160768       B0      = 2.44907E-6     B1      = 7.59709E-6         
+KETA    = 0.014          A1      = 0              A2      = 1                  
+RDSW    = 3.37228E3      PRWG    = -0.055125      PRWB    = -0.1               
+WR      = 1              WINT    = -0.24E-6          LINT    = 0         
+DWG     = -1.54717E-8    DWB     = 8.93169E-9     VOFF    = -0.0368746         
+NFACTOR = 0.74192        CIT     = 0              CDSC    = -5.62458E-4        
+CDSCD   = 0              CDSCB   = 0              ETA0    = 4.60467E-4         
+ETAB    = -6E-3          DSUB    = 0.56           PCLM    = 0.0099963          
+PDIBLC1 = 0.191389       PDIBLC2 = 5.64458E-3     PDIBLCB = 0.01               
+DROUT   = 0.480004       PSCBE1  = 8E8            PSCBE2  = 5.00756E-5         
+PVAG    = 9.98026E-3     DELTA   = 0.192573       HDIF    = 2.23E-6            
+JS      = 2.186E-7       MOBMOD  = 1              PRT     = 594.7940582        
+UTE     = -1.2088015     KT1     = -0.6132701     KT1L    = 7.132841E-8        
+KT2     = -0.0566636     UA1     = 5.52542E-9     UB1     = -1.45711E-17       
+UC1     = -6.99202E-11   AT      = 1E4            NQSMOD  = 0                  
+WL      = 0              WLN     = 1              WW      = 0                  
+WWN     = 1              WWL     = 0              LL      = 0                  
+LLN     = 1              LW      = 0              LWN     = 1                  
+LWL     = 0              CAPMOD  = 3              CGDO    = 1.35E-10           
+CGSO    = 1.35E-10       CJ      = 9.47216E-4     PB      = 0.804517           
+MJ      = 0.371571       CJSW    = 1.62919E-10    PBSW    = 0.805452           
+MJSW    = 0.157777       TCJ     = 9.785676E-4    TPB     = 1.690715E-3        
+TCJSW   = 5.869297E-4    TPBSW   = 2.297256E-3    WMIN    = 7.5E-7             
+WMAX    = 1.0001E-4      LMIN    = 7E-7           LMAX    = 1.0001E-4          
+BINUNIT = 1              PRDSW   = 105.741        PVTH0   = -3.78869E-3        
+PVOFF   = -0.0359959     PUA     = -7.93798E-10   PK1     = 7.79611E-3         
+PUB     = 3.99415E-20    PUC     = -6.66071E-11   PKETA   = 4.25698E-3         
+NJ      = 1.011          WUA1    = 1.465117E-9    WUB1    = 8.833052E-19       
+WUTE    = 0.2137975      WUC1    = 9.985275E-11   WKETA   = 6.32344E-3         
+LKETA   = -0.0126464      )                                                    

																			
*.ENDL SBCD_RF

.MODEL IDEAL_SWITCH SW RON=0.01 ROFF=10Meg VT=0.5

.MODEL RPPLUS R LEVEL=3 RSH=200 TC1=1.5E-3 TC2=5E-7 VR1=6E-4 DLR=0.5u DW=-0.05U
.MODEL RNWELL R LEVEL=3 RSH=10000 TC1=8E-6 TC2=5E-7 VR1=4E-4 DLR=0.4u DW=-0.02U
*RPOLY Model changed
*.MODEL RPOLY R LEVEL=3 RSH=50 TC1=5E-5 TC2=1E-7 VR1=4E-4 DLR=0.4u DW=0.02U
.MODEL RNPOLY R LEVEL=3 RSH=50 TC1=-5E-5 TC2=1E-7 VR1=4E-4 DLR=0.4u DW=0.02U

.MODEL PIPCAP C CAP=4.55E-3 VC1=50E-4

.MODEL PPNW D
.MODEL PSUB_NW  D
.MODEL PNP PNP BF=90
.MODEL NPN NPN BF=120

.MODEL HVCMOSN NMOS (                                 LEVEL  = 3                  
+ TOX    = 1.4E-7          NSUB   = 1E17            GAMMA  = 0.5483559          
+ PHI    = 0.7             VTO    = 1.7640855       DELTA  = 3.0541177          
+ UO     = 662.6984452     ETA    = 3.162045E-6     THETA  = 0.1013999          
+ KP     = 1.259355E-4     VMAX   = 1.442228E6      KAPPA  = 0.3                
+ RSH    = 7.513418E-3     NFS    = 1E12            TPG    = 1                  
+ XJ     = 3E-7            LD     = 1E-13           WD     = 2.334779E-7        
+ CGDO   = 2.15E-10        CGSO   = 2.15E-10        CGBO   = 1E-10              
+ CJ     = 4.258447E-4     PB     = 0.9140376       MJ     = 0.435903           
+ CJSW   = 3.147465E-10    MJSW   = 0.1977689       )                           
*                                                                               
.MODEL HVCMOSP PMOS (                                 LEVEL  = 3                  
+ TOX    = 1.4E-7          NSUB   = 1E17            GAMMA  = 0.6243261          
+ PHI    = 0.7             VTO    = -1.9444911      DELTA  = 0.1118368          
+ UO     = 250             ETA    = 0               THETA  = 0.1633973          
+ KP     = 3.924644E-5     VMAX   = 1E6             KAPPA  = 30.1015109         
+ RSH    = 33.9672594      NFS    = 1E12            TPG    = -1                 
+ XJ     = 2E-7            LD     = 5E-13           WD     = 4.11531E-7        
+ CGDO   = 2.34E-10        CGSO   = 2.34E-10        CGBO   = 1E-10              
+ CJ     = 7.285722E-4     PB     = 0.96443         MJ     = 0.5                
+ CJSW   = 2.955161E-10    MJSW   = 0.3184873       )   

*****NEW DEVICES___ ADDED BY PDK TEAM******                
.subckt RFNMOS2V D G S B lr=0.24u  nr=8

mcore n1 n2 n3 n4 RFN w=5u l=lr m=nr ad=0.0 as=0.0 pd=0.0 ps=0.0
rd D n1 1e-5
rg G n2 '(1.1588-7.68168/(nr*lr*1e6)+1.1509E+02/nr)*9.7952E-01'
rs S n3 '2.5516E-01/(log10(nr/1.9899+1))+1.0789'
rsub3 n4 B '(2.9984E+01+4838.5/nr)*9.4863E-01'
rds n3 n5 '6.2534E+01-42.25/(nr*sqrt(lr*1e6))'
ddb n4 n1 DN_RFN area='nr/2.1655*0.82u*5u'  pj='nr*(0.82u+5u)'
dsb n4 n3 DN_RFN area='(nr/1.9291+1.0)*0.82u*5u' pj='(nr/2.1684+1.0)*(0.82u+5u)*1.8996'
cds n1 n5 '(2.8463E+01+0.8243*nr/sqrt(lr*1.0e6))*1.0e-15'

.MODEL RFN NMOS (
+LMIN	= 2.4e-07
+SFVTFLAG	= 0
+VFBFLAG	= 1
+LMAX	= 5e-07
+WMIN	= 1.2e-06
+WMAX	= 0.000101
+LEVEL	= 49
+TNOM	= 25
+XL	= 2.8464E-08
+NOIMOD	= 1
+EF	= 1.0110
+AF	= 9.6549E-01
+KF	= 5.4565E-28
+XW	= 9.7453E-07
+VERSION	= 3.2
+TOX	= 5.8049E-09
+XJ	= 9.8750E-08
+NCH	= 1.7040E+17
+LLN	= 1
+LWN	= 1
+WLN	= 1
+WWN	= 1
+LINT	= 2.0154E-08
+WINT	= 2.0054E-08
+MOBMOD	= 1
+BINUNIT	= 2.0889
+DWG	= 0
+DWB	= 0
+VTH0	= 5.3666E-01
+LVTH0	= -2.4265E-09
+WVTH0	= -7.6884E-08
+PVTH0	= 2.3500E-14
+K1	= 3.9793E-01
+LK1	= 1.7485E-08
+WK1	= -3.0205E-08
+PK1	= -3.8623E-16
+K2	= 3.2923E-02
+LK2	= -1.2755E-08
+WK2	= 1.6885E-09
+PK2	= 2.8338E-15
+K3	= 0
+DVT0	= 0
+DVT1	= 0
+DVT2	= 0
+DVT0W	= 0
+DVT1W	= 0
+DVT2W	= 0
+NLX	= 0
+W0	= 0
+K3B	= 0
+VSAT	= 1.1007E+05
+LVSAT	= -1.5263E-03
+WVSAT	= -3.7315E-03
+PVSAT	= 1.8521E-09
+UA	= -9.4150E-10
+LUA	= -1.0143E-16
+WUA	= 7.9169E-17
+PUA	= 1.8775E-23
+UB	= 1.7501E-18
+LUB	= 1.8179E-25
+WUB	= -8.9070E-26
+PUB	= -8.9730E-32
+UC	= 4.6336E-11
+LUC	= 8.1541E-18
+WUC	= -1.9794E-17
+PUC	= 7.5611E-25
+RDSW	= 1.8864E+02
+PRWB	= 0
+PRWG	= 0
+WR	= 1
+U0	= 3.1666E-02
+LU0	= -4.5589E-10
+WU0	= 6.0102E-10
+PU0	= -6.6414E-16
+A0	= 2.5550E-01
+LA0	= 1.2770E-07
+WA0	= 4.0066E-07
+PA0	= -2.3580E-13
+KETA	= -1.7018E-02
+LKETA	= 9.4231E-09
+WKETA	= 3.5650E-08
+PKETA	= -1.0956E-14
+A1	= 0
+A2	= 5.6648E-01
+LA2	= 2.3467E-08
+WA2	= 9.3786E-08
+PA2	= -2.7296E-14
+AGS	= 2.7195E-02
+LAGS	= -8.9499E-09
+B0	= 0
+B1	= 0
+VOFF	= -1.3203E-01
+LVOFF	= -6.9493E-09
+WVOFF	= 8.3394E-09
+PVOFF	= 5.3463E-15
+NFACTOR	= 1
+CIT	= 1.0132E-03
+CDSC	= 0
+CDSCB	= 0
+CDSCD	= 0
+ETA0	= -9.5119E-04
+LETA0	= 1.4021E-09
+WETA0	= -2.9075E-10
+PETA0	= -2.1184E-16
+ETAB	= 7.3938E-04
+LETAB	= -6.4652E-10
+WETAB	= -6.3826E-10
+PETAB	= 3.5346E-16
+DSUB	= 0
+PCLM	= 1.5701
+LPCLM	= 2.0029E-07
+WPCLM	= 3.0487E-07
+PPCLM	= -4.2155E-14
+PDIBLC1	= 9.8212E-06
+PDIBLC2	= -9.0684E-04
+LPDIBLC2	= 1.3765E-09
+WPDIBLC2	= 2.4227E-09
+PPDIBLC2	= -5.7556E-16
+PDIBLCB	= 1.0507E-02
+DROUT	= 0
+PSCBE1	= 3.6427E+08
+LPSCBE1	= 6.7336
+WPSCBE1	= -5.5321
+PPSCBE1	= 4.6914E-06
+PSCBE2	= 9.5714E-07
+PVAG	= 0
+DELTA	= 9.6395E-03
+ALPHA0	= 0
+BETA0	= 2.0766E+01
+KT1	= -3.3418E-01
+LKT1	= 2.4483E-08
+WKT1	= 5.8605E-08
+PKT1	= -2.5670E-14
+KT2	= -3.4755E-02
+LKT2	= 5.1225E-10
+WKT2	= -5.7073E-09
+PKT2	= 3.1902E-15
+AT	= 3.6128E+04
+UTE	= -1.6593
+LUTE	= 9.9993E-08
+WUTE	= 2.2112E-07
+PUTE	= -9.4815E-14
+UA1	= 1.0019E-10
+UB1	= 0
+UC1	= -6.0113E-11
+LUC1	= 1.2174E-17
+WUC1	= 1.6356E-16
+PUC1	= -4.5525E-23
+KT1L	= 0
+PRT	= 0
+CJ	= 1.8451E-03
+MJ	= 4.6060E-01
+PB	= 9.7579E-01
+CJSW	= 4.4854E-10
+MJSW	= 3.6300E-01
+PBSW	= 9.3247E-01
+CJSWG	= 3.1527E-10
+MJSWG	= 3.8140E-01
+PBSWG	= 9.7849E-01
+TCJ	= 7.1290E-04
+TCJSW	= 8.5610E-04
+TPB	= 1.2947E-03
+TPBSW	= 1.1920E-03
+JS	= 1.8627E-06
+JSW	= 5.1443E-10
+CGDO	= 0
+CGSO	= 0
+CAPMOD	= 2.8490
+NQSMOD	= 0
+XPART	= 1
+CF	= 0
+TLEV	= 1
+TLEVC	= 1
+XTI	= 2.8523
+N	= 1
+HDIF	= 2.5821E-07
+LDIF	= 1.2414E-07
+RSH	= 4.5459
+RS	= 0
+RD	= 0
+DLC	= 3.5226E-09
+DWC	= 5.3757E-10
+CLC	= 3.9312E-08
+CLE	= 6.8181E-01
+ACDE	= 3.9021E-01
+MOIN	= 1.0162E+01
+NOFF	= 1.4701
+VOFFCV	= -7.1294E-02
+CKAPPA	= 2.6870
+CGDL	= 0
+CGSL	= 0
+CGBO	= 1.0218E-13
+TOXM	= 5.3590E-09
+TCJSWG	= 8.7848E-04
+TPBSWG	= 1.2617E-03
+ALPHA1	= 1.7223E+01)


.MODEL DN_RFN D (
+ 
+CJ	= 1.7957E-03
+PB	= 8.7823E-01
+MJ	= 5.1314E-01
+CJSW	= 1.5754E-10
+PHP	= 9.6529E-01
+MJSW	= 3.8196E-01)    
.ends RFNMOS2V

*****************************************************************
.subckt RFNMOS3V D G S B lr=0.35u  nr=8

mcore n1 n2 n3 n4 RFN3 w=5u l=lr m=nr ad=0.0 as=0.0 pd=0.0 ps=0.0
rd D n1 1e-5
rg G n2 '(1.6698E-01+173.8/nr-9.7581/(nr*lr*1e6))*9.9718E-01'
rs S n3 '1.4024/(log10(nr/1.9433+1.0))+1.2799'
rsub1 n6 n4 '(9.4569E+01/nr-1.2175E-01)*1.0575'
rsub2 n5 n4 '(9.3183E+01/nr-1.1092E-01)*9.8035E-01'
rsub3 n4 B '(-4.2653E+01+5469.1/nr)*1.0124'
rds n7 n3 '3.6885E+02-34.76/(nr*sqrt(lr*1e6))'
ddb n6 n1 DN_RFN3 area='nr/2.0232*0.82u*5u'       pj='nr*(0.82u+5u)'
dsb n5 n3 DN_RFN3 area='(nr/1.8533+1.0)*0.82u*5u' pj='(nr/1.8860+1.0)*(0.82u+5u)*2.0888'
cds n1 n7 '(-8.0759+0.873*nr/sqrt(lr*1.0e6))*1.0e-15'

.MODEL RFN3 NMOS (
+LMIN	= 3.5e-07
+SFVTFLAG	= 0
+VFBFLAG	= 1
+LMAX	= 6.1e-07
+WMIN	= 1.2e-06
+WMAX	= 0.000101
+NOIMOD	= 1
+EF	= 9.4553E-01
+AF	= 7.9095E-01
+KF	= 4.8957E-28
+LEVEL	= 49
+TNOM	= 25
+XL	= 3.1338E-08
+XW	= 1.0578E-06
+VERSION	= 3.2
+TOX	= 7.4297E-09
+XJ	= 9.6609E-08
+NCH	= 1.9604E+17
+LLN	= 1
+LWN	= 1
+WLN	= 1
+WWN	= 1
+LINT	= 1.4934E-08
+WINT	= 1.4485E-08
+MOBMOD	= 1
+BINUNIT	= 2.0661
+DWG	= 0
+DWB	= 0
+VTH0	= 5.5970E-01
+LVTH0	= -6.6417E-09
+WVTH0	= -1.4703E-09
+PVTH0	= 1.0936E-15
+K1	= 5.6421E-01
+LK1	= -1.1877E-08
+WK1	= -5.3855E-09
+PK1	= -2.8877E-15
+K2	= 4.5687E-02
+LK2	= -2.0197E-08
+WK2	= -8.0191E-10
+PK2	= 1.6958E-15
+K3	= 0
+DVT0	= 0
+DVT1	= 0
+DVT2	= 0
+DVT0W	= 0
+DVT1W	= 0
+DVT2W	= 0
+NLX	= 0
+W0	= 0
+K3B	= 0
+VSAT	= 1.0922E+05
+LVSAT	= 1.3638E-02
+WVSAT	= 4.0377E-02
+PVSAT	= -1.6185E-08
+UA	= -1.8528E-09
+LUA	= 7.4755E-16
+WUA	= 6.4916E-16
+PUA	= -5.0656E-22
+UB	= 2.5841E-18
+LUB	= -3.5900E-25
+WUB	= -8.3276E-25
+PUB	= 2.3249E-31
+UC	= 8.1952E-11
+LUC	= -6.3469E-18
+WUC	= -5.5472E-17
+PUC	= 5.2784E-24
+RDSW	= 4.8234E+02
+PRWB	= 0
+PRWG	= 0
+WR	= 1
+U0	= 3.1443E-02
+LU0	= 1.3641E-09
+WU0	= 2.5950E-09
+PU0	= -4.1706E-16
+A0	= 4.9978E-01
+LA0	= -1.0374E-07
+WA0	= 8.3768E-07
+PA0	= -2.5766E-13
+KETA	= -2.1158E-02
+LKETA	= 7.1646E-10
+WKETA	= 3.7589E-08
+PKETA	= -1.9295E-15
+A1	= 0
+A2	= 5.1476E-01
+LA2	= -2.6574E-08
+WA2	= -8.1872E-08
+PA2	= 3.2818E-14
+AGS	= -4.1171E-02
+LAGS	= 1.8153E-08
+WAGS	= 3.6679E-08
+PAGS	= -2.1268E-14
+B0	= 0
+B1	= 0
+VOFF	= -1.0560E-01
+LVOFF	= 3.1836E-10
+WVOFF	= -1.1833E-08
+PVOFF	= 5.6117E-15
+NFACTOR	= 1
+CIT	= 6.4402E-04
+LCIT	= 9.2946E-11
+WCIT	= 5.5069E-11
+PCIT	= -1.1707E-16
+CDSC	= 0
+CDSCB	= 0
+CDSCD	= 0
+ETA0	= -8.7938E-04
+LETA0	= 9.8408E-10
+WETA0	= -3.3214E-09
+PETA0	= 2.0247E-15
+ETAB	= 7.6169E-04
+LETAB	= -7.8604E-10
+WETAB	= -3.7303E-10
+PETAB	= 2.3903E-16
+DSUB	= 0
+PCLM	= 1.0703
+LPCLM	= 2.0824E-07
+WPCLM	= 7.5875E-07
+PPCLM	= -6.4417E-14
+PDIBLC1	= 9.8584E-06
+PDIBLC2	= -5.9512E-04
+LPDIBLC2	= 5.9686E-10
+WPDIBLC2	= 1.8715E-09
+PPDIBLC2	= -6.0739E-16
+PDIBLCB	= 9.9943E-03
+DROUT	= 0
+PSCBE1	= 3.0915E+08
+LPSCBE1	= 1.0479E+01
+WPSCBE1	= -1.0736E+01
+PPSCBE1	= 1.3737E-05
+PSCBE2	= 9.5513E-07
+PVAG	= 0
+DELTA	= 9.8019E-03
+ALPHA0	= 0
+BETA0	= 2.5535E+01
+KT1	= -2.4857E-01
+LKT1	= -4.7936E-09
+WKT1	= -8.2470E-08
+PKT1	= 2.4018E-14
+KT2	= -1.7158E-02
+LKT2	= -1.7049E-09
+WKT2	= -5.0627E-09
+PKT2	= 4.2386E-15
+AT	= 7.4639E+04
+WAT	= -3.9565E-02
+UTE	= -1.9342
+LUTE	= 2.1980E-07
+WUTE	= -2.4180E-07
+PUTE	= -1.0399E-13
+UA1	= 1.8021E-10
+LUA1	= -4.5697E-17
+WUA1	= -7.7202E-16
+PUA1	= 4.4660E-22
+UB1	= -1.0378E-20
+LUB1	= 3.9107E-27
+WUB1	= 1.0361E-25
+PUB1	= -3.4902E-32
+UC1	= -7.9328E-12
+LUC1	= 2.0323E-18
+WUC1	= 7.5545E-17
+PUC1	= -2.0835E-23
+KT1L	= 0
+PRT	= 0
+CJ	= 1.1665E-03
+MJ	= 3.5242E-01
+PB	= 9.4259E-01
+CJSW	= 2.5568E-10
+MJSW	= 1.2322E-01
+PBSW	= 9.6298E-01
+CJSWG	= 1.6270E-10
+MJSWG	= 1.3077E-01
+PBSWG	= 9.0360E-01
+TCJ	= 8.9225E-04
+TCJSW	= 3.4422E-04
+TPB	= 1.8284E-03
+TPBSW	= 1.9802E-03
+JS	= 2.0616E-06
+JSW	= 8.0674E-11
+CGDO	= 0
+CGSO	= 2.5404E-10
+CAPMOD	= 0
+NQSMOD	= 0
+XPART	= 1
+CF	= 0
+TLEV	= 1
+TLEVC	= 1
+XTI	= 3.0187
+N	= 1
+HDIF	= 2.6142E-07
+LDIF	= 1.1785E-07
+RSH	= 4.5583
+RS	= 0
+RD	= 0
+TCJSWG	= 3.4417E-04
+TPBSWG	= 1.8327E-03
+ALPHA1	= 2.3120E+01)

.MODEL DN_RFN3 D (
+ 
+CJ	= 1.2589E-03
+PB	= 9.2312E-01
+MJ	= 3.3020E-01
+CJSW	= 1.6459E-10
+PHP	= 8.7854E-01
+MJSW	= 1.3404E-01)      

.ends RFNMOS3V

*****************************************************************
.MODEL MN.1 NMOS (
+LMIN	= 1.2e-06
+CALCACM	= 1
+SFVTFLAG	= 0
+VFBFLAG	= 1
+LMAX	= 2.1e-05
+WMIN	= 1.2e-06
+WMAX	= 0.000101
+LEVEL	= 49
+TNOM	= 25
+XL	= 3.0035E-08
+NLEV	= 3.1283
+AF	= 9.2552E-01
+KF	= 3.4423E-24
+XW	= 0
+VERSION	= 3.2
+TOX	= 5.4272E-09
+XJ	= 9.0850E-08
+NCH	= 1.6210E+17
+LLN	= 1
+LWN	= 1
+WLN	= 1
+WWN	= 1
+LINT	= 2.1097E-08
+WINT	= 1.9418E-08
+MOBMOD	= 1
+BINUNIT	= 2.0827
+DWG	= 0
+DWB	= 0
+VTH0	= 4.6710E-01
+LVTH0	= 3.6331E-08
+WVTH0	= -1.3944E-08
+PVTH0	= -6.3433E-15
+K1	= 4.1371E-01
+LK1	= -5.5010E-08
+WK1	= -4.3346E-08
+PK1	= 5.8579E-14
+K2	= 4.6287E-03
+LK2	= 2.1017E-08
+WK2	= 1.7299E-08
+PK2	= -2.7538E-14
+K3	= 0
+DVT0	= 0
+DVT1	= 0
+DVT2	= 0
+DVT0W	= 0
+DVT1W	= 0
+DVT2W	= 0
+NLX	= 0
+W0	= 0
+K3B	= 0
+VSAT	= 1.1386E+05
+LVSAT	= -1.2773E-02
+UA	= -8.9101E-10
+LUA	= -1.2064E-16
+WUA	= 1.4482E-16
+PUA	= -5.7314E-23
+UB	= 1.8220E-18
+LUB	= 1.5751E-25
+WUB	= -2.2552E-25
+PUB	= 8.8251E-33
+UC	= 4.3558E-11
+LUC	= 8.5221E-18
+WUC	= -7.5225E-18
+PUC	= -6.0608E-24
+RDSW	= 1.8927E+02
+PRWB	= 0
+PRWG	= 0
+WR	= 1
+U0	= 2.9822E-02
+LU0	= 5.5735E-11
+WU0	= -8.0250E-11
+PU0	= 1.1313E-15
+A0	= 5.0924E-01
+LA0	= 3.7665E-08
+WA0	= 1.2938E-07
+PA0	= -1.9907E-13
+KETA	= 3.5227E-03
+LKETA	= -8.9316E-09
+WKETA	= -8.2239E-11
+PKETA	= 1.7733E-15
+A1	= 0
+A2	= 6.2742E-01
+AGS	= 1.0454E-02
+B0	= 0
+B1	= 0
+VOFF	= -1.4815E-01
+LVOFF	= 2.1445E-08
+WVOFF	= 6.8046E-09
+PVOFF	= -7.7908E-15
+NFACTOR	= 1
+CIT	= 3.6804E-04
+LCIT	= 7.7084E-10
+WCIT	= -6.2479E-10
+PCIT	= 7.2515E-16
+CDSC	= 0
+CDSCB	= 0
+CDSCD	= 0
+ETA0	= 3.7525E-05
+LETA0	= 2.3209E-10
+WETA0	= 7.7951E-12
+PETA0	= -1.7221E-16
+ETAB	= -4.9824E-05
+LETAB	= -6.2672E-11
+DSUB	= 0
+PCLM	= 5.0301E-01
+LPCLM	= 4.8589E-07
+WPCLM	= -5.8634E-09
+PPCLM	= 1.1730E-13
+PDIBLC1	= 9.6846E-06
+PDIBLC2	= 2.1220E-04
+LPDIBLC2	= 5.9928E-09
+PDIBLCB	= 1.0618E-02
+DROUT	= 0
+PSCBE1	= 1.2318E+08
+LPSCBE1	= 2.6444E+02
+WPSCBE1	= -3.0886
+PPSCBE1	= -1.2494E-05
+PSCBE2	= 9.6810E-07
+PVAG	= 0
+DELTA	= 1.0222E-02
+ALPHA0	= 0
+BETA0	= 2.1227E+01
+KT1	= -2.2398E-01
+LKT1	= -1.4557E-08
+WKT1	= 1.0940E-08
+PKT1	= -1.3509E-14
+KT2	= -2.2865E-02
+LKT2	= -1.4976E-08
+WKT2	= -1.1089E-08
+PKT2	= 1.2657E-14
+AT	= 3.3781E+04
+UTE	= -1.5480
+LUTE	= 3.6308E-09
+WUTE	= 1.0571E-07
+PUTE	= -5.7344E-14
+UA1	= 1.0633E-10
+UB1	= 0
+UC1	= -4.6959E-11
+LUC1	= 7.5938E-17
+WUC1	= 8.4771E-17
+PUC1	= -9.2814E-23
+KT1L	= 0
+PRT	= 0
+CJ	= 1.7743E-03
+MJ	= 4.6416E-01
+PB	= 1.0031
+CJSW	= 4.4209E-10
+MJSW	= 3.5643E-01
+PBSW	= 1.0324
+CJSWG	= 3.3903E-10
+MJSWG	= 3.6322E-01
+PBSWG	= 9.3290E-01
+TCJ	= 7.9183E-04
+TCJSW	= 8.9417E-04
+TPB	= 1.3485E-03
+TPBSW	= 1.1452E-03
+JS	= 1.9530E-06
+JSW	= 4.9893E-10
+CGDO	= 1.3253E-10
+CGSO	= 1.2910E-10
+CAPMOD	= 3.0061
+NQSMOD	= 0
+XPART	= 1
+CF	= 0
+TLEV	= 1
+TLEVC	= 1
+XTI	= 3.0325
+N	= 1
+HDIF	= 2.6356E-07
+LDIF	= 1.2198E-07
+RSH	= 4.3026
+RS	= 0
+RD	= 0
+ACM	= 1.3023E+01
+DLC	= 3.6891E-09
+DWC	= 6.0117E-10
+CLC	= 4.0045E-08
+CLE	= 7.2040E-01
+ACDE	= 3.8066E-01
+MOIN	= 1.0071E+01
+NOFF	= 1.5718
+VOFFCV	= -7.7370E-02
+CKAPPA	= 2.9047
+CGDL	= 2.1052E-10
+CGSL	= 2.0771E-10
+CGBO	= 1.0376E-13
+TOXM	= 5.2985E-09
+TCJSWG	= 9.7376E-04
+TPBSWG	= 1.1437E-03
+ALPHA1	= 1.8417E+01)


.MODEL MN.2 NMOS (
+LMIN	= 5e-07
+CALCACM	= 1
+SFVTFLAG	= 0
+VFBFLAG	= 1
+LMAX	= 1.2e-06
+WMIN	= 1.2e-06
+WMAX	= 0.000101
+LEVEL	= 49
+TNOM	= 25
+XL	= 3.2632E-08
+NLEV	= 3.0133
+AF	= 8.8982E-01
+KF	= 3.4469E-24
+XW	= 0
+VERSION	= 3.2
+TOX	= 5.1729E-09
+XJ	= 1.0584E-07
+NCH	= 1.5760E+17
+LLN	= 1
+LWN	= 1
+WLN	= 1
+WWN	= 1
+LINT	= 2.0656E-08
+WINT	= 2.0569E-08
+MOBMOD	= 1
+BINUNIT	= 1.9770
+DWG	= 0
+DWB	= 0
+VTH0	= 4.4147E-01
+LVTH0	= 3.3201E-08
+WVTH0	= -1.1007E-08
+PVTH0	= -1.0346E-14
+K1	= 3.8050E-01
+LK1	= 3.2019E-08
+WK1	= 3.5370E-08
+PK1	= -3.3415E-14
+K2	= 3.2812E-02
+LK2	= -1.2890E-08
+WK2	= -1.6582E-08
+PK2	= 1.2806E-14
+K3	= 0
+DVT0	= 0
+DVT1	= 0
+DVT2	= 0
+DVT0W	= 0
+DVT1W	= 0
+DVT2W	= 0
+NLX	= 0
+W0	= 0
+K3B	= 0
+VSAT	= 1.1943E+05
+LVSAT	= -8.2024E-03
+UA	= -9.3371E-10
+LUA	= -1.0376E-16
+WUA	= 8.1511E-17
+PUA	= 1.7121E-23
+UB	= 1.8355E-18
+LUB	= 7.7908E-26
+WUB	= -1.9177E-25
+PUB	= -3.5361E-32
+UC	= 3.9257E-11
+LUC	= 1.2204E-17
+WUC	= -8.0657E-18
+PUC	= -5.1049E-24
+RDSW	= 1.7405E+02
+PRWB	= 0
+PRWG	= 0
+WR	= 1
+U0	= 3.4561E-02
+LU0	= -1.4523E-09
+WU0	= 1.9529E-09
+PU0	= -1.3069E-15
+A0	= 5.9963E-01
+LA0	= -3.6347E-08
+WA0	= -4.4028E-08
+PA0	= -6.7883E-15
+KETA	= -9.1633E-03
+LKETA	= 5.0206E-09
+WKETA	= -4.8579E-09
+PKETA	= 7.7965E-15
+A1	= 0
+A2	= 7.1565E-01
+LA2	= -4.6002E-08
+WA2	= -2.8620E-08
+PA2	= 3.4288E-14
+AGS	= 1.0146E-02
+B0	= 0
+B1	= 0
+VOFF	= -1.1829E-01
+LVOFF	= -9.5005E-09
+WVOFF	= -1.3730E-08
+PVOFF	= 1.6064E-14
+NFACTOR	= 1
+CIT	= 9.9451E-04
+CDSC	= 0
+CDSCB	= 0
+CDSCD	= 0
+ETA0	= -7.2007E-04
+LETA0	= 1.1888E-09
+WETA0	= 2.7769E-10
+PETA0	= -5.2969E-16
+ETAB	= 1.9357E-04
+LETAB	= -3.2940E-10
+DSUB	= 0
+PCLM	= 1.4547E-01
+LPCLM	= 9.3521E-07
+WPCLM	= 1.3225E-08
+PPCLM	= 1.0034E-13
+PDIBLC1	= 9.9229E-06
+PDIBLC2	= 7.1153E-03
+LPDIBLC2	= -2.5847E-09
+WPDIBLC2	= -9.1938E-10
+PPDIBLC2	= 1.0648E-15
+PDIBLCB	= 9.9224E-03
+DROUT	= 0
+PSCBE1	= 3.3599E+08
+LPSCBE1	= 2.3277E+01
+WPSCBE1	= -2.6078E+01
+PPSCBE1	= 1.5961E-05
+PSCBE2	= 9.7422E-07
+PVAG	= 0
+DELTA	= 1.0708E-02
+ALPHA0	= 0
+BETA0	= 1.9943E+01
+KT1	= -2.3997E-01
+LKT1	= -1.4061E-08
+WKT1	= -7.9781E-09
+PKT1	= 9.2547E-15
+KT2	= -3.8016E-02
+LKT2	= 2.8672E-10
+WKT2	= -1.3981E-09
+PKT2	= 1.1054E-15
+AT	= 3.4779E+04
+UTE	= -1.8348
+LUTE	= 9.6334E-08
+WUTE	= 8.3712E-08
+PUTE	= -3.4603E-14
+UA1	= 9.8186E-11
+UB1	= 0
+UC1	= 5.5678E-11
+LUC1	= -4.6155E-17
+WUC1	= -4.5146E-17
+PUC1	= 6.2481E-23
+KT1L	= 0
+PRT	= 0
+CJ	= 1.7767E-03
+MJ	= 4.7401E-01
+PB	= 8.9924E-01
+CJSW	= 4.0816E-10
+MJSW	= 3.6563E-01
+PBSW	= 9.0669E-01
+CJSWG	= 3.2083E-10
+MJSWG	= 3.8075E-01
+PBSWG	= 1.0153
+TCJ	= 7.3982E-04
+TCJSW	= 9.2612E-04
+TPB	= 1.3155E-03
+TPBSW	= 1.0905E-03
+JS	= 1.9781E-06
+JSW	= 4.9905E-10
+CGDO	= 1.2552E-10
+CGSO	= 1.3295E-10
+CAPMOD	= 2.7988
+NQSMOD	= 0
+XPART	= 1
+CF	= 0
+TLEV	= 1
+TLEVC	= 1
+XTI	= 3.0821
+N	= 1
+HDIF	= 2.6919E-07
+LDIF	= 1.1899E-07
+RSH	= 4.3229