.MODEL IDEAL_SWITCH SW RON=0.01 ROFF=10Meg VT=0.5

.MODEL RPPLUS R LEVEL=3 RSH=200 TC1=3.5E-3 TC2=5E-7 VR1=6E-4 DLR=0.5u DW=-0.05U
.MODEL RNWELL R LEVEL=3 RSH=10000 TC1=8E-6 TC2=5E-7 VR1=4E-4 DLR=0.4u DW=-0.02U
.MODEL RPOLY R LEVEL=3 RSH=50 TC1=5E-5 TC2=1E-7 VR1=4E-4 DLR=0.4u DW=0.02U
.MODEL RNPOLY R LEVEL=3 RSH=50 TC1=-5E-5 TC2=1E-7 VR1=4E-4 DLR=0.4u DW=0.02U

.MODEL P1P2 C COX=7.5E-3 CAPSW=6.25E-9 VC1=50E-4

.MODEL PPNW D
.MODEL PSUB_NW D
.MODEL PNP PNP BF=90
.MODEL NPN NPN BF=120

.MODEL CMOSN NMOS (                                 LEVEL  = 3                  
+ TOX    = 1.4E-8          NSUB   = 1E17            GAMMA  = 0.5483559          
+ PHI    = 0.7             VTO    = 0.7640855       DELTA  = 3.0541177          
+ UO     = 662.6984452     ETA    = 3.162045E-6     THETA  = 0.1013999          
+ KP     = 1.259355E-4     VMAX   = 1.442228E5      KAPPA  = 0.3                
+ RSH    = 7.513418E-3     NFS    = 1E12            TPG    = 1                  
+ XJ     = 3E-7            LD     = 1E-13           WD     = 2.334779E-7        
+ CGDO   = 2.15E-10        CGSO   = 2.15E-10        CGBO   = 1E-10              
+ CJ     = 4.258447E-4     PB     = 0.9140376       MJ     = 0.435903           
+ CJSW   = 3.147465E-10    MJSW   = 0.1977689       )                           
*                                                                               
.MODEL CMOSP PMOS (                                 LEVEL  = 3                  
+ TOX    = 1.4E-8          NSUB   = 1E17            GAMMA  = 0.6243261          
+ PHI    = 0.7             VTO    = -0.9444911      DELTA  = 0.1118368          
+ UO     = 250             ETA    = 0               THETA  = 0.1633973          
+ KP     = 3.924644E-5     VMAX   = 1E6             KAPPA  = 30.1015109         
+ RSH    = 33.9672594      NFS    = 1E12            TPG    = -1                 
+ XJ     = 2E-7            LD     = 5E-13           WD     = 4.11531E-7        
+ CGDO   = 2.34E-10        CGSO   = 2.34E-10        CGBO   = 1E-10              
+ CJ     = 7.285722E-4     PB     = 0.96443         MJ     = 0.5                
+ CJSW   = 2.955161E-10    MJSW   = 0.3184873       )            

.MODEL HVCMOSN NMOS (                                 LEVEL  = 3                  
+ TOX    = 1.4E-7          NSUB   = 1E17            GAMMA  = 0.5483559          
+ PHI    = 0.7             VTO    = 1.7640855       DELTA  = 3.0541177          
+ UO     = 662.6984452     ETA    = 3.162045E-6     THETA  = 0.1013999          
+ KP     = 1.259355E-4     VMAX   = 1.442228E6      KAPPA  = 0.3                
+ RSH    = 7.513418E-3     NFS    = 1E12            TPG    = 1                  
+ XJ     = 3E-7            LD     = 1E-13           WD     = 2.334779E-7        
+ CGDO   = 2.15E-10        CGSO   = 2.15E-10        CGBO   = 1E-10              
+ CJ     = 4.258447E-4     PB     = 0.9140376       MJ     = 0.435903           
+ CJSW   = 3.147465E-10    MJSW   = 0.1977689       )                           
*                                                                               
.MODEL HVCMOSP PMOS (                                 LEVEL  = 3                  
+ TOX    = 1.4E-7          NSUB   = 1E17            GAMMA  = 0.6243261          
+ PHI    = 0.7             VTO    = -1.9444911      DELTA  = 0.1118368          
+ UO     = 250             ETA    = 0               THETA  = 0.1633973          
+ KP     = 3.924644E-5     VMAX   = 1E6             KAPPA  = 30.1015109         
+ RSH    = 33.9672594      NFS    = 1E12            TPG    = -1                 
+ XJ     = 2E-7            LD     = 5E-13           WD     = 4.11531E-7        
+ CGDO   = 2.34E-10        CGSO   = 2.34E-10        CGBO   = 1E-10              
+ CJ     = 7.285722E-4     PB     = 0.96443         MJ     = 0.5                
+ CJSW   = 2.955161E-10    MJSW   = 0.3184873       )            
