source n1.var
source n0c1.var
go victorydevice simflag = "-128"
#vpm_previous = -1

# Part 2: Transient Solution
#
# Circuit descriptions
.begin
# transient PULSE i1 i2 td tr tf pwidth period
iin 0 GG 0 pulse 0 1e-5 1e-8 1e-8 1e-8 1.0 2.0
Rg GG G 10
amos G = gate D = drain 0 = source infile = n3_powerex11_amos.str width = 1e4
iout 0 D 2e-5
dout D DD idealDiode
vdd DD 0 20
#
# End of circuit description
#
.model idealDiode d()
#
.numeric vchange = 1.0 imaxtr = 50
#
.load infile = n3_powerex11
.save outfile = n4_powerex11_tr
#
.options fulln print
#
.log outfile = n4_powerex11
#
.tran 1e-8 1e-4
#
.end
#
contact device = amos name = gate n.poly
interface device = amos qf = 2e11

models device = amos cvt srh auger bgn print
impact device = amos selb
