.MODEL HiSIM_HV2 NMOS (
+LEVEL    = 73             VERSION  = 2.1            coovlp   = 1              
+coovlps  = 1              coisub   = 1              coiigs   = 0              
+cogidl   = 0              coisti   = 0              coadov   = 1              
+conqs    = 0              corg     = 0              corbnet  = 0              
+coflick  = 0              cothrml  = 0              coign    = 0              
+coiprv   = 1              copprv   = 1              codfm    = 0              
+coselfheat = 1
+cotemp   = 0              
+cosubnode = 0
+cosym    = 0              cordrift = 1              coqovsm  = 1              
+coerrrep = 1              eg0      = 1.1785         bgtmp1   = 0.000340352    
+bgtmp2   = -5.68918e-07   muetmp   = 1.78362        tnom     = 27             
+vtmp     = -0.169935      vmaxt1   = -0.000606117   vmaxt2   = -1.86801e-06   
+ninvdt1  = 0.000732181    ninvdt2  = 1e-05          rthtemp1 = 5e-05          
+rthtemp2 = 1.79221e-08    tox      = 2.98e-08       xl       = 0              
+xw       = 0              xld      = 0              xldld    = 3.87576e-06    
+xwd      = 9.00512e-08    xwdld    = 0              xwdc     = 1e-07          
+tpoly    = 2e-07          ll       = 0              lld      = 0              
+lln      = 0              wl       = 0              wld      = 0              
+wln      = 0              nsubc    = 5.41312e+16    nsubp    = 1e+18          
+nsubsub  = 1e+15          lp       = 0              npext    = 5e+17          
+lpext    = 1e-50          vfbc     = -1.13187       vbi      = 1.1            
+kappa    = 3.9            ldrift1  = 3e-06          ldrift2  = 1.7e-06        
+ldrift1s = 0              ldrift2s = 1e-06          ddrift   = 1e-06          
+loverld  = 2.55926e-06    lovers   = 7.83537e-08    vbsmin   = -10.5          
+vgsmin   = -100           muecb0   = 32874.2        muecb1   = 1157.34        
+mueph0   = 0.263574       mueph1   = 29798          muephl   = 0              
+mueplp   = 1              muesr0   = 2.11124        muesr1   = 1.52449e+14    
+muesrl   = 0              mueslp   = 1              ndep     = 0.0893114      
+ndepl    = 0              ndeplp   = 1              ninv     = 0.148841       
+ninvd    = 0.22999        ninvdw   = 0.752123       ninvdwp  = 0.0866919      
+bb       = 2.6751         vmax     = 1.33085e+07    vover    = 0.322467       
+voverp   = 0.3            rsh      = 0              rshg     = 0              
+rbpb     = 50             rbpd     = 50             rbps     = 50             
+rbdb     = 50             rbsb     = 50             rdrdl1   = 1.14488e-07    
+rdrdl2   = 0              rdrcx    = 0.00678317     rdrcar   = 0              
+rdrdjunc = 1.92221e-06    rdrmue   = 469.945        rdrvmax  = 2.88406e+07    
+rdrvmaxl = 0              
+rdrvmaxlp = 1
+rdrvmaxw = -0.5           
+rdrvmaxwp = 0.5
+rdrmuel  = 0              rdrmuelp = 1              rdrbb    = 1.50533        
+rdrqover = 97405.3        rdrvtmp  = -1.05428       
+rdrmuetmp = 1.8348
+gbmin    = 1e-12          rth0     = 1.42262        cth0     = 1e-07          
+rth0w    = -6.89456       rth0wp   = 0.985914       rth0nf   = 0              
+powrat   = 1              
+prattemp1 = 0
+prattemp2 = 0
+shemax   = 500            nfalp    = 1e-19          nftrp    = 1e+10          
+cit      = 0              falph    = 1              sub1     = 0.0228145      
+sub1l    = 0.0025         sub1lp   = 1              sub2     = 99.2565        
+sub2l    = 2e-06          svds     = 0.74873        slg      = 3e-08          
+slgl     = 0              slglp    = 1              svbs     = 0.5            
+svbsl    = 0              svbslp   = 1              svgs     = 0.700039       
+svgsl    = 0              svgslp   = 1              svgsw    = 0              
+svgswp   = 1              ibpc1    = 0              ibpc2    = 0              
+ibpc1l   = 0              ibpc1lp  = -1             subld1   = 0              
+subld2   = 0              subld1l  = 0              subld1lp = 1              
+xpdv     = 0              xpvdth   = 0              xpvdthg  = 0              
+mphdfm   = -0.3           parl2    = 1e-08          sc1      = 0              
+sc2      = 0              sc3      = 0              sc4      = 0              
+scp1     = 0              scp2     = 0              scp3     = 0              
+scp21    = 0              bs1      = 0              bs2      = 0.9            
+clm1     = 0.0100247      clm2     = 4              clm3     = 0.5            
+clm5     = 1              clm6     = 0              wfc      = 0              
+wvth0    = 0.114255       nsubcw   = 1.32378        nsubcwp  = 1              
+nsubp0   = 0              nsubwp   = 1              muephw   = -3.78296       
+muepwp   = 1.00032        muesrw   = 0.156143       mueswp   = 0.76807        
+vthsti   = 0              vdsti    = 0              scsti1   = 0              
+scsti2   = 0              nsti     = 1e+16          wsti     = 0              
+wstil    = 0              wstilp   = 1              wstiw    = 0              
+wstiwp   = 1              wl1      = 0              wl1p     = 1              
+nsubpsti1 = 0
+nsubpsti2 = 0
+nsubpsti3 = 1
+muesti1  = 0              muesti2  = 0              muesti3  = 1              
+saref    = 1e-06          sbref    = 1e-06          wl2      = 1.61006        
+wl2p     = 1              muephs   = -2             muepsp   = 1              
+vovers   = 0              voversp  = 0              qme1     = 0              
+qme2     = 2              qme3     = 0              pgd1     = 0              
+pgd2     = 1              pgd4     = 0              gleak1   = 50             
+gleak2   = 1e+07          gleak3   = 0.06           gleak4   = 4              
+gleak5   = 7500           gleak6   = 0.25           gleak7   = 1e-06          
+egig     = 0              igtemp2  = 0              igtemp3  = 0              
+glksd1   = 1e-15          glksd2   = 1000           glksd3   = -1000          
+glkb1    = 5e-16          glkb2    = 1              glkb3    = 0              
+glpart1  = 0.5            fn1      = 50             fn2      = 0.00017        
+fn3      = 0              fvbs     = 0.012          gidl1    = 2              
+gidl2    = 3e+07          gidl3    = 0.9            gidl4    = 0              
+gidl5    = 0.2            vzadd0   = 0.01           pzadd0   = 0.005          
+ddltmax  = 10             ddltslp  = 0              ddltict  = 10             
+js0      = 5e-07          js0sw    = 0              nj       = 1              
+njsw     = 1              xti      = 2              xti2     = 0              
+divx     = 0              ctemp    = 0              cisb     = 0              
+cisbk    = 0              cvb      = 0              cj       = 0.0005         
+cjsw     = 5e-10          cjswg    = 5e-10          mj       = 0.5            
+mjsw     = 0.33           mjswg    = 0.33           pb       = 1              
+pbsw     = 1              pbswg    = 1              vdiffj   = 0.0006         
+tcjbd    = 0              tcjbdsw  = 0              tcjbdswg = 0              
+tcjbs    = 0              tcjbssw  = 0              tcjbsswg = 0              
+xqy      = 0              xqy1     = 0              xqy2     = 2              
+nover    = 1.00038e+16    vfbover  = 0.0690316      qovadd   = 0              
+novers   = 1e+16          ovslp    = 2.1e-07        ovmag    = 0.6            
+cgso     = 8.7044e-11     cgdo     = 5.45398e-11    cgbo     = 0              
+cvdsover = 0.367234       dly1     = 1e-10          dly2     = 0.7            
+dly3     = 8e-07          pt2      = 0              pt4      = 0              
+pt4p     = 1              ptl      = 0              ptlp     = 1              
+ptp      = 3.5            gdl      = 0              gdld     = 0              
+gdlp     = 0              gdsleak  = 0              lbinn    = 1              
+wbinn    = 1              lmax     = 1              lmin     = 0              
+wmax     = 1              wmin     = 0 )
