.MODEL hisim2 NMOS (
+level    = 68             version  = '2.80'         corsrd   = 0              
+corg     = 0              coiprv   = 1              copprv   = 1              
+coadov   = 1              coisub   = 1              coiigs   = 1              
+cogidl   = 1              coovlp   = 1              coflick  = 0              
+coisti   = 1              conqs    = 0              cothrml  = 0              
+coign    = 0              codfm    = 0              corbnet  = 0              
+corecip  = 1              coqy     = 0              coqovsm  = 1              
+codep    = 0              coddlt   = 0              bgtmp1   = 9.025e-05      
+bgtmp2   = 1e-07          eg0      = 1.1785         tox      = 3e-09          
+xld      = 0              lover    = 2.31277e-08    ddltmax  = 10             
+ddltslp  = 0              ddltict  = 10             vfbover  = 0.175969       
+nover    = 6.97345e+19    xwd      = 1.69796e-08    xl       = 0              
+xw       = 0              saref    = 1e-06          sbref    = 1e-06          
+ll       = 0              lld      = 0              lln      = 0              
+wl       = 0              wl1      = 0              wl1p     = 1              
+wl2      = -0.00140851    wl2p     = 1.09971        wld      = 0              
+wln      = 0              web      = 0              wec      = 0              
+rsh      = 0              rshg     = 0              xqy      = 1e-08          
+xqy1     = 0              xqy2     = 2              qyrat    = 0.5            
+rs       = 0              rd       = 0              vfbc     = -0.96247       
+vfbcl    = 0              vfbclp   = 1              vbi      = 1.1            
+nsubc    = 5.91496e+17    parl2    = 2.11778e-08    lp       = 8.48178e-09    
+nsubp    = 9.48647e+18    nsubpl   = 0.001          nsubpfac = 1              
+nsubpdlt = 0.01           nsubpw   = 0.000870403    nsubpwp  = 1.34001        
+nsubpwpe = 0              scp1     = 0.811825       scp2     = 0              
+scp3     = 9.41467e-10    sc1      = 5.93001        sc2      = 0              
+sc3      = 0              sc4      = 0              sc3vbs   = -0.01          
+pgd1     = 5.11888e-06    pgd2     = 0.3            pgd4     = 2.71656        
+ndep     = 0.79632        ndepl    = 0.0199274      ndeplp   = 0.988503       
+ndepw    = 0.00139971     ndepwp   = 1.43404        ninv     = 0.328159       
+ninvd    = 0              muecb0   = 100            muecb0lp = 0              
+muecb1   = 120.773        muecb1lp = 0              mueph0   = 0.31326        
+mueph1   = 25751          muephw   = 0.01           muepwp   = 1              
+muepwd   = 0              muephl   = -0.011291      mueplp   = 1              
+muepld   = 1.1117e-09     muephs   = 0.00377578     muepsp   = 0.760251       
+vtmp     = 0              wvth0    = 0.0184277      muesr0   = 2.01495        
+muesr1   = 7.46963e+14    muesrl   = 0.00654517     muesrw   = 0.000389123    
+mueswp   = 0.423638       mueslp   = 0.311361       muetmp   = 1.5            
+bb       = 2.54647        sub1     = 0.00183906     sub2     = 10             
+svgs     = 0.1            svbs     = 1              svbsl    = -5.82627e-07   
+svds     = 1              slg      = 3e-08          sub1l    = 0.00185011     
+sub2l    = 5.14366e-07    svgsl    = 0              svgslp   = 1              
+svgswp   = 1              svgsw    = 0              svbslp   = 1.31121        
+slgl     = 0              slglp    = 1              sub1lp   = 1              
+nsti     = 5e+17          wsti     = 0              wstil    = 0              
+wstilp   = 1              wstiw    = 0              wstiwp   = 1              
+scsti1   = 0              scsti2   = 0              vthsti   = 0              
+vdsti    = 0              muesti1  = 0              muesti2  = 0              
+muesti3  = 1              
+nsubpsti1 = 0
+nsubpsti2 = 0
+nsubpsti3 = 1
+lpext    = 1e-50          npext    = 8e+17          npextw   = 0              
+npextwp  = 1              npextwpe = 0              scp21    = 0              
+scp22    = 0              bs1      = 0              bs2      = 0.9            
+tpoly    = 2e-07          cgbo     = 0              js0      = 5e-07          
+js0sw    = 0              nj       = 1              njsw     = 1              
+xti      = 2              cj       = 0.0005         cjsw     = 5e-10          
+cjswg    = 5e-10          mj       = 0.5            mjsw     = 0.33           
+mjswg    = 0.33           pb       = 1              pbsw     = 1              
+pbswg    = 1              tcjbd    = 0              tcjbs    = 0              
+tcjbdsw  = 0              tcjbssw  = 0              tcjbdswg = 0              
+tcjbsswg = 0              xti2     = 0              cisb     = 0              
+cvb      = 0              ctemp    = 0              cisbk    = 0              
+cvbk     = 0              divx     = 0              clm1     = 0.945531       
+clm2     = 1.40791        clm3     = 0.50005        clm5     = 1.13561        
+clm6     = 1.58324        vmax     = 4.30426e+06    vover    = 0.404447       
+voverp   = 1.07367        wfc      = 3.13049e-15    nsubcw   = 0              
+nsubcwp  = 1              nsubcwpe = 0              nsubcmax = 1e+18          
+qme1     = 0              qme2     = 1              qme3     = 0              
+vovers   = 0.0789841      voversp  = 0.606834       gidl1    = 2              
+gidl2    = 3e+07          gidl3    = 0.9            gidl4    = 0              
+gidl5    = 0.2            gidl6    = 0              gidl7    = 1              
+gleak1   = 50             gleak2   = 1e+07          gleak3   = 0.06           
+gleak4   = 4              gleak5   = 7500           gleak6   = 0.25           
+gleak7   = 1e-06          glksd1   = 1e-16          glksd2   = 5e+06          
+glksd3   = -5e+06         glkb1    = 5e-16          glkb2    = 1              
+glkb3    = 0              egig     = 0              igtemp2  = 0              
+igtemp3  = 0              vzadd0   = 0.02           pzadd0   = 0.02           
+nftrp    = 1e+10          nfalp    = 1e-19          falph    = 1              
+cit      = 0              kappa    = 3.9            cgso     = 2.01794e-10    
+cgdo     = 2.00111e-10    vdiffj   = 0.0006         dly1     = 1e-10          
+dly2     = 0.7            dly3     = 8e-07          tnom     = 27             
+ovslp    = 2.1e-07        ovmag    = 0.6            gbmin    = 1e-12          
+rbpb     = 50             rbpd     = 50             rbps     = 50             
+rbdb     = 50             rbsb     = 50             ibpc1    = 0              
+ibpc2    = 0              mphdfm   = -0.3           ptl      = 0              
+ptp      = 3.5            pt2      = 0              ptlp     = 1              
+gdl      = 0              gdlp     = 0              gdld     = 0              
+pt4      = 0              pt4p     = 1              muephl2  = 0              
+mueplp2  = 1              nsubcw2  = 0              nsubcwp2 = 1              
+muephw2  = 0              muepwp2  = 1              byptol   = 0              
+lmin     = 0              lmax     = 1              wmin     = 0              
+wmax     = 1              lbinn    = 1              wbinn    = 1              
+pnsubc   = 0              wnsubc   = 0              lnsubc   = 0              
+pvfbc    = 0              wvfbc    = 0              lvfbc    = 0              
+pnsubp   = 1e+15          wnsubp   = 1e+15          lnsubp   = 1e+15          
+pmuecb0  = 0              lmuecb0  = 0              wmuecb0  = 0              
+pmuecb1  = 0              lmuecb1  = 0              wmuecb1  = 0              
+pmueph1  = 0              lmueph1  = 0              wmueph1  = 0              
+pmuesr1  = 0              lmuesr1  = 0              wmuesr1  = 0              
+psc1     = 0              lsc1     = 0              wsc1     = 0              
+pscp1    = 0              lscp1    = 0              wscp1    = 0              
+psc2     = 0              lsc2     = 0              wsc2     = 0              
+pscp2    = 0              lscp2    = 0              wscp2    = 0              
+psc3     = 0              lsc3     = 0              wsc3     = 0              
+pscp3    = 0              lscp3    = 0              wscp3    = 0              
+pwvth0   = 0              lwvth0   = 0              wwvth0   = 0              
+pwfc     = 0              lwfc     = 0              wwfc     = 0              
+pwl2     = 0              lwl2     = 0              wwl2     = 0              
+pninv    = 0              lninv    = 0              wninv    = 0              
+pndep    = 0              lndep    = 0              wndep    = 0              
+pvmax    = 0              lvmax    = 0              wvmax    = 0              
+pclm1    = 0              lclm1    = 0              wclm1    = 0              
+pclm2    = 0              lclm2    = 0              wclm2    = 0              
+pclm3    = 0              lclm3    = 0              wclm3    = 0              
+pgleak1  = 0              lgleak1  = 0              wgleak1  = 0              
+pgleak2  = 0              lgleak2  = 0              wgleak2  = 0              
+pgleak3  = 0              lgleak3  = 0              wgleak3  = 0              
+pglksd1  = 0              lglksd1  = 0              wglksd1  = 0              
+pnsti    = 0              lnsti    = 0              wnsti    = 0              
+pvthsti  = 0              lvthsti  = 0              wvthsti  = 0              
+pwsti    = 0              lwsti    = 0              wwsti    = 0              
+plover   = 0              llover   = 0              wlover   = 0              
+pvfbover = 0              lvfbover = 0              wvfbover = 0              
+pnover   = 0              lnover   = 0              wnover   = 0 )