.MODEL NMOS NMOS (
+LEVEL    = 49             VERSION  = 3.3            TNOM     = 27             
+TOX      = 1.4e-08        XJ       = 1.5e-07        NCH      = 1.7e+17        
+VTH0     = 0.65           K1       = 0.34           K2       = -0.05          
+K3       = 80             K3B      = 0              W0       = 2.5e-06        
+NLX      = 1.74e-07       DVT0W    = 0              DVT1W    = 0              
+DVT2W    = -0.032         DVT0     = 2.2            DVT1     = 0.53           
+DVT2     = -0.032         U0       = 0.057          UA       = 5e-09          
+UB       = 1.2e-18        UC       = -7.7e-11       VSAT     = 80000          
+A0       = 1              AGS      = 0              B0       = 0              
+B1       = 0              KETA     = -0.047         A1       = 0              
+A2       = 1              RDSW     = 0              PRWG     = 0              
+PRWB     = 0              WR       = 1              WINT     = 0              
+LINT     = 0              XL       = 0              XW       = 0              
+DWG      = 0              DWB      = 0              VOFF     = -0.1           
+NFACTOR  = 1              CIT      = 0              CDSC     = 0.00024        
+CDSCD    = 0              CDSCB    = 0              ETA0     = 0.08           
+ETAB     = -0.07          DSUB     = 0.56           PCLM     = 1.3            
+PDIBLC1  = 0.39           PDIBLC2  = 0.0086         PDIBLCB  = 0              
+DROUT    = 0.56           PSCBE1   = 4.2e+08        PSCBE2   = 5e-05          
+PVAG     = 0              DELTA    = 0.01           MOBMOD   = 1              
+PRT      = 0              UTE      = -1.5           KT1      = 0              
+KT1L     = 0              KT2      = 0              UA1      = 4.3e-09        
+UB1      = -7.6e-18       UC1      = -5.6e-11       AT       = 33000          
+NQSMOD   = 0              WL       = 0              WLN      = 1              
+WW       = 0              WWN      = 1              WWL      = 0              
+LL       = 0              LLN      = 1              LW       = 0              
+LWN      = 1              LWL      = 0              CAPMOD   = 2              
+TPB      = 0              TPBSW    = 0              TPBSWG   = 0              
+TCJ      = 0              TCJSW    = 0              TCJSWG   = 0              
+NOFF     = 1              ACDE     = 1              MOIN     = 15 )
