.include "models.dat"

.SUBCKT BCD3INV_1XG1 A VNEG VPOS Y
X1 VNEG Y A VNEG VPOS BCD3A_INMOS 
M1 Y A VPOS VPOS PMOS L=2U W=7U AD="15E-12" AS="15E-12" PD="19E-6" PS="19E-6" NRD="285.714E-3" NRS="285.714E-3"  M=1 
.ENDS BCD3INV_1XG1


.SUBCKT BCD3A_INMOS B D G S TUB
M1 D G S B NMOS L=2U W=3.5U AD="7.5E-12" AS="7.5E-12" PD="11.5E-6" PS="11.5E-6" NRD="571.429E-3" NRS="571.429E-3"  M=1 
D2 GND TUB DNB_SU1 "481E-12"  PJ="89E-6"  M=1 
D1 B TUB DPW_EP1 "152E-12"  PJ="51E-6"  M=1 
.ENDS BCD3A_INMOS


