*
* Ring Oscillator
*

.include inv.in

* Analysis
.tran 1n 170ns

.end
