* RS flipflop VerilogA

.verilog "rs_ff.va"

* Input Waveforms
VSET                    set         0      PULSE(5 0 0 5n 5n 4u 8u)
VRESET	                reset       0      PULSE(0 5 0 5n 5n 4u 8u)

* Instance RS Flip Flop  
YVLGrs     q qbar set reset  	V_rs_ff 

* Output Loading
CLoad_q             q         0       1p
CLoad_qbar        qbar        0       1p


* Analysis
.TRAN 1u 30u

* Print Waveforms
.print @YVLGrs[V(q)] @YVLGrs[V(qbar)] @YVLGrs[V(set)] @YVLGrs[V(reset)] 

.end
