.LIB TYPICAL
*
.MODEL NM NMOS (                                   LEVEL   = 49
+TNOM    = 25             TOX     = 7E-9           XJ      = 1.5E-7         
+NCH     = 7E16           VTH0    = 0.53           K1      = 0.63      
+K2      = -1.8E-5        K3      = 4.8            K3B     = -0.30     
+W0      = 2.5E-7         NLX     = 3.0E-7         DVT0W   = -0.036      
+DVT1W   = 4.4E4          DVT2W   = 0.25           DVT0    = 2.7      
+DVT1    = 0.58           DVT2    = -0.18          U0      = 340
+UA      = -4.6E-10       UB      = 1.8E-18        UC      = 8.8E-11
+VSAT    = 1.4E5          A0      = 1.0            AGS     = 0.20
+B0      = 4.8E-8         B1      = 1E-7           KETA    = -8.6E-3
+A1      = 1E-5           A2      = 0.50           RDSW    = 860
+PRWG    = -8.5E-3        PRWB    = 0.012          WR      = 1
+WINT    = 2.0E-7         LINT    = 4.4E-8         DWG     = -1.8E-8
+DWB     = 1.1E-8         VOFF    = -0.12          NFACTOR = 1.8
+CIT     = 0              CDSC    = 0              CDSCD   = 0
+CDSCB   = 0              ETA0    = 0.027          ETAB    = -0.024
+DSUB    = 0.45           PCLM    = 0.80           PDIBLC1 = 0.40
+PDIBLC2 = 1.4E-3         PDIBLCB = 0.2            DROUT   = 1.1
+PSCBE1  = 1E9            PSCBE2  = 1E-6           PVAG    = -0.13
+DELTA   = 8E-3           NGATE   = 1E22           ALPHA0  = 0
+BETA0   = 30             RSH     = 3.0            JS      = 2.6E-7
+MOBMOD  = 1              PRT     = 460            UTE     = -1.2       
+KT1     = -0.29          KT1L    = 7.0E-9         KT2     = -0.040     
+UA1     = 2.2E-9         UB1     = -2.4E-18       UC1     = -7.3E-11   
+AT      = 2.2E4          NQSMOD  = 0              ELM     = 5              
+WL      = 0              WLN     = 1              WW      = 0              
+WWN     = 1              WWL     = -4.5E-20       LL      = 3.4E-15   
+LLN     = 1              LW      = 0              LWN     = 1.4      
+LWL     = -3.3E-23       CAPMOD  = 2              XPART   = 0              
+CGDO    = 1.6E-10        CGSO    = 1.6E-10        CGBO    = 1E-15          
+CJ      = 8.6E-4         PB      = 0.70           MJ      = 0.30      
+CJSW    = 7.0E-11        PBSW    = 1              MJSW    = 0.1            
+CGSL    = 0              CGDL    = 0              CKAPPA  = 0.6            
+CF      = 0              CLC     = 1E-7           CLE     = 0.6            
+CTA     = 6.8E-4         CTP     = 0              PTA     = 1.8E-3    
+PTP     = 8.7E-3         DLC     = 1.9E-8         ACM     = 2              
+TLEVC   = 1              NDS     = 1E7            XL      = -1E-8
+WMIN    = 0.8E-6         WMAX    = 50E-6          LMIN    = 0.4E-6
+LMAX    = 20E-6          
+BULK    = 0
+KF = 1e-22)
*
.MODEL PM PMOS (                                   LEVEL   = 49
+TNOM    = 25             TOX     = 7E-9           XJ      = 1.5E-7         
+NCH     = 5E16           VTH0    = -0.75          K1      = 0.35      
+K2      = -0.045         K3      = 5.582428       K3B     = 1.2      
+W0      = 1.7E-7         NLX     = 1.2E-6         DVT0W   = -0.010      
+DVT1W   = 6.8E4          DVT2W   = 0.40           DVT0    = 0.58      
+DVT1    = 0.20           DVT2    = -2.0E-4        U0      = 300
+UA      = 2.9E-9         UB      = 1.0E-18        UC      = -2.9E-10
+VSAT    = 1.3E5          A0      = -0.11          AGS     = 0.47
+B0      = 6.9E-8         B1      = 2.8E-11        KETA    = -0.014
+A1      = 0              A2      = 1              RDSW    = 1.5E3
+PRWG    = -0.020         PRWB    = -0.33          WR      = 1
+WINT    = 1.5E-7         LINT    = -3.3E-8        DWG     = 0
+DWB     = 0              VOFF    = -0.12          NFACTOR = 1.6
+CIT     = 0              CDSC    = 0              CDSCD   = 0
+CDSCB   = 0              ETA0    = 0.075          ETAB    = -0.010
+DSUB    = 0.35           PCLM    = 2.4            PDIBLC1 = 0.024
+PDIBLC2 = 8.6E-3         PDIBLCB = 0.1            DROUT   = 0.58
+PSCBE1  = 1E9            PSCBE2  = 1E-6           PVAG    = 0
+DELTA   = 0.010          NGATE   = 1E22           ALPHA0  = 0
+BETA0   = 30             RSH     = 2.5            JS      = 2.6E-7
+MOBMOD  = 1              PRT     = -680           UTE     = -1.1     
+KT1     = -0.50          KT1L    = 2.1E-8         KT2     = -0.017     
+UA1     = 3.9E-9         UB1     = -6.4E-18       UC1     = 3.0E-10   
+AT      = 6.7            NQSMOD  = 0              ELM     = 5              
+WL      = 0              WLN     = 1              WW      = 0              
+WWN     = 1              WWL     = -2.0E-20       LL      = 3.3E-15   
+LLN     = 1              LW      = 0              LWN     = 1              
+LWL     = -1.6E-20       CAPMOD  = 2              XPART   = 0              
+CGDO    = 1.5E-10        CGSO    = 1.5E-10        CGBO    = 1E-15
+CJ      = 8.8E-4         PB      = 0.70           MJ      = 0.38
+CJSW    = 8.2E-11        PBSW    = 1.3            MJSW    = 0.1
+CGSL    = 0              CGDL    = 0              CKAPPA  = 0.6
+CF      = 0              CLC     = 1E-7           CLE     = 0.6
+CTA     = 7.2E-4         CTP     = 1.9E-4         PTA     = 1.3E-3
+PTP     = 0.01           DLC     = 4.4E-8         ACM     = 2              
+TLEVC   = 1              NDS     = 1E7            XL      = -1E-8
+WMIN    = 0.8E-6         WMAX    = 50E-6          LMIN    = 0.4E-6         
+LMAX    = 20E-6          
+BULK    = VDD
+KF = 1e-22 )
*
.ENDL TYPICAL
