* Pmos BSIM4 model
**********************
.MODEL PCH PMOS (
+LEVEL    = 54             VERSION  = 4.8            BINUNIT  = 1              
+PARAMCHK = 1              MOBMOD   = 1              RDSMOD   = 0              
+IGCMOD   = 1              IGBMOD   = 1              CAPMOD   = 2              
+RGATEMOD = 0              RBODYMOD = 0              TRNQSMOD = 0              
+ACNQSMOD = 0              FNOIMOD  = 1              TNOIMOD  = 0              
+DIOMOD   = 2              PERMOD   = 1              GEOMOD   = 0              
+EPSROX   = 3.9            TOXE     = 2.43e-09       TOXP     = 1.891e-09      
+TOXM     = 2.43e-09       DTOX     = 5.39e-10       XJ       = 1.2e-07        
+NDEP     = 3.6e+16        NGATE    = 0              NSD      = 1e+20          
+RSH      = 0              RSHG     = 0.1            VTH0     = -0.084248      
+VFB      = -1             PHIN     = 0              K1       = 0.0646181      
+K2       = 0.0551608      K3       = 0              K3B      = 10             
+W0       = 0              LPE0     = 1.74e-07       LPEB     = 0              
+DVT0     = 0              DVT1     = 0.0390828      DVT2     = 5e-10          
+DVTP0    = 0              DVTP1    = 0              DVT0W    = 0.177904       
+DVT1W    = 601592         DVT2W    = 0.29259        U0       = 116.4          
+UA       = 1.88952e-09    UB       = 1e-21          UC       = -1e-10         
+EU       = 1.67           VSAT     = 61149.6        A0       = 2              
+AGS      = 1.15498        B0       = 5.18192e-07    B1       = 1e-07          
+KETA     = 0              A1       = 0              A2       = 1              
+WINT     = 0              LINT     = 0              DWG      = -2.75924e-08   
+DWB      = -1.34218e-10   VOFF     = -0.131222      VOFFL    = 0              
+MINV     = 0              NFACTOR  = 2              ETA0     = 0.903788       
+ETAB     = -0.000419823   DSUB     = 1              CIT      = 0              
+CDSC     = 0.00024        CDSCB    = 0              CDSCD    = 0              
+PCLM     = 0.1            PDIBLC1  = 0.00107381     PDIBLC2  = 1e-05          
+PDIBLCB  = -0.000123175   DROUT    = 0.357852       PSCBE1   = 1e+09          
+PSCBE2   = 1e-09          PVAG     = 8.51905        DELTA    = 0.03           
+FPROUT   = 0              PDITS    = 0              PDITSL   = 0              
+PDITSD   = 0              LAMBDA   = 0              VTL      = 205000         
+LC       = 0              XN       = 3              RDSW     = 1000           
+RDSWMIN  = 100            RDW      = 100            RDWMIN   = 0              
+RSW      = 100            RSWMIN   = 0              PRWG     = 0.1            
+PRWB     = -0.001         WR       = 1              ALPHA0   = 0              
+ALPHA1   = 0              BETA0    = 30             AGIDL    = 4.432e-09      
+BGIDL    = 4.808e+09      CGIDL    = 0.009173       EGIDL    = -2.18          
+AIGBACC  = 0.01103        BIGBACC  = 0.006761       CIGBACC  = 0.577          
+NIGBACC  = 4.396          AIGBINV  = 0.009466       BIGBINV  = 0.00234        
+CIGBINV  = 0.001832       EIGBINV  = 1.633          NIGBINV  = 3.124          
+AIGC     = 0.00679        BIGC     = 0.0008875      CIGC     = 0.0006343      
+AIGSD    = 0.005652       BIGSD    = 7.805e-05      CIGSD    = 0.01803        
+DLCIG    = 3.2e-08        NIGC     = 0.7925         POXEDGE  = 1              
+PIGCD    = 1              NTOX     = 1              TOXREF   = 2.45e-09       
+XPART    = 0              CGSL     = 2e-10          CGDL     = 2e-10          
+CKAPPAS  = 0.6            CKAPPAD  = 0.6            CLC      = 1e-07          
+CLE      = 0.6            DLC      = 0              DWC      = 0              
+VFBCV    = -1             NOFF     = 1              VOFFCV   = 0              
+XRCRG1   = 12             XRCRG2   = 1              RBPB     = 50             
+RBPD     = 50             RBPS     = 50             RBDB     = 50             
+RBSB     = 50             GBMIN    = 1e-12          NOIC     = 8.75           
+EM       = 4.1e+07        AF       = 1              EF       = 1              
+KF       = 0              NTNOI    = 1              TNOIA    = 1.5            
+TNOIB    = 3.5            RNOIA    = 0.577          RNOIB    = 0.37           
+DMCG     = 0              DMCI     = 0              DMDG     = 0              
+DMCGT    = 0              DWJ      = 0              XGW      = 0              
+XGL      = 0              XL       = 0              XW       = 0              
+NGCON    = 1              IJTHSREV = 0.002175       IJTHDREV = 0.1            
+IJTHSFWD = 0.0035         IJTHDFWD = 0.1            XJBVS    = 1              
+XJBVD    = 1              BVS      = 8.964          BVD      = 10             
+JSS      = 1.995e-07      JSD      = 0.0001         JSWS     = 1.092e-13      
+JSWD     = 0              JSWGS    = 1e-13          JSWGD    = 0              
+CJS      = 0.00126        MJS      = 0.31           MJSWS    = 0.33           
+CJSWS    = 5e-10          CJSWGS   = 5e-10          MJSWGS   = 0.33           
+PBS      = 0.73           PBSWS    = 1              PBSWGS   = 0.6            
+TNOM     = 27             UTE      = -2             KT1      = -0.278301      
+KT1L     = -3.24611e-12   KT2      = 0.0146989      UA1      = -1.02398e-09   
+UB1      = -2.61056e-18   UC1      = 0.067          AT       = 33000          
+PRT      = 0              NJS      = 1              NJD      = 1              
+XTIS     = 3              XTID     = 3              TPB      = 0              
+TPBSW    = 0              TPBSWG   = 0              TCJ      = 0              
+TCJSW    = 0              TCJSWG   = 0              SAref    = 1e-06          
+SBref    = 1e-06          WLOD     = 0              KU0      = 0              
+KVSAT    = 0              TKU0     = 0              LKU0     = 0              
+WKU0     = 0              LLODKU0  = 0              WLODKU0  = 0              
+KVTH0    = 0              LKVTH0   = 0              WKVTH0   = 0              
+LLODVTH  = 0              WLODVTH  = 0              STK2     = 0              
+LODK2    = 1              STETA0   = 0              LODETA0  = 1              
+WL       = 0              WLN      = 1              WW       = 0              
+WWN      = 1              WWL      = 0              LL       = 0              
+LLN      = 1              LW       = 0              LWN      = 1              
+LWL      = 0              LLC      = 0              LWC      = 0              
+LWLC     = 0              WLC      = 0              WWC      = 0              
+WWLC     = 0              WMAX     = 1e-05          WMIN     = 1.3e-07        
+LMAX     = 1e-05          LMIN     = 6.5e-08        PVTH0    = -0.01          
+PRDSW    = 0              PK1      = -8.15738e-05   PK2      = -0.000211513   
+PUA      = -3.71012e-13   CGSO     = 4.2e-11        CGDO     = 4.2e-11        
+CGBO     = 0              PVSAT    = 1000            )
