* Bandpass filter

.verilog "bpf.va"

* Input Waveform
vin in 0 ac 1 sin(0,1, 250)

* Instance BPF
YVLG_lpf in out bpf

* Output Loading
Rload out 0 1MEG

* Analyses
.ac DEC 100 10k 240k
.tran 0.1m 4m

* Plot Waveforms
.iplot ac vdb(out)
.iplot tran v(in)

.end
