plaintext
/* CMOS Inverter Transient Simulation */
/* Netlist generated by Analog Circuit Designer */

/* Define the input signal */
PULSE(VIN, 0, 1.8, 0, 0.001, 0.01, 0)

/* Define the MOSFETs */
M1 OUT VDD IN GATE BODY = VDD
NMOS1 OUT VDD IN VDD GATE BODY = 0

/* Set up the simulation parameters */
.TRAN 1N 200N

/* Print the output voltage */
.END
