.MODEL TN nmos
+ level=49              
+ version=3.2           nqsmod=0              xw=3e-08              
+ xl=-2e-08             wmin=1.5e-07          wmax=1                
+ lmin=1.3e-07          lmax=1                mobmod=2              
+ capmod=3              binunit=1             js=0                  
+ jsw=0                 lint=1.46404e-08      ll=0                  
+ lln=1                 lw=0                  lwn=1                 
+ lwl=0                 wint=2.23e-08         wl=0                  
+ wln=1                 ww=0                  wwn=1                 
+ wwl=0                 tnom=27               tox=2.35e-09          
+ cj=0                  mj=0.33               cjsw=0                
+ mjsw=0.5              
+ pbsw=1                
+ cjswg=0               mjswg=0.5             pbswg=1               
+ cgso=0                cgdo=0                cgbo=1e-12            
+ xpart=0               dwg=-9e-09            dwb=0                 
+ nch=6.94459e+17       ngate=3e+20           xj=1e-07              
+ u0=2.0515e+02         vth0=0.227            k1=0.326605           
+ k2=0                  k3=-6.715             lk3=0.495             
+ k3b=1.9819            w0=-1.29442e-08       nlx=8.5e-08           
+ pnlx=0                dvt0=2.13851          dvt1=0.887934         
+ dvt2=-0.018588        dvt0w=0.25            dvt1w=1.45541e+06     
+ dvt2w=-0.000282805    ua=-6.26635e-10       ub=1.64683e-18        
+ uc=-1.66223e-10       delta=0.00374596      rdsw=145              
+ prwg=0                prwb=-0.12            wr=1                  
+ vsat=95356.1          a0=1.65               la0=-0.122025         
+ keta=-0.0120587       ags=0.646592          
+ a1=0                  a2=1                  b0=0                  
+ b1=0                  alpha0=0              beta0=12.0493         
+ lbeta0=-0.220056      voff=-0.098851        lvoff=-0.0028         
+ nfactor=0.94337       cdsc=0.0188           cdscb=0               
+ cdscd=0               cit=0                 eta0=0.018865         
+ etab=-0.00360131      dsub=0.128834         drout=1.1             
+ pclm=0.67609          pdiblc1=0.00444391    pdiblc2=0.00238149    
+ pdiblcb=0             pscbe1=8e+08          pscbe2=1e-05          
+ pvag=0.00710791       ute=-1.64             at=43500              
+ ua1=8.37223e-10       ub1=-2.00845e-18      uc1=1.34214e-10       
+ kt1=-0.235            kt1l=9.10674e-10      kt2=-0.035027         
+ prt=-50               cgsl=5.07e-10         cgdl=5.07e-10         
+ ckappa=4.78743        cf=0                  clc=1e-07             
+ cle=0.6               dlc=2.07e-08          dwc=2.23e-08          
+ noff=2.1              voffcv=-0.09          alpha1=0.111727       
+ acde=0.6              moin=6                llc=0                 
+ lwc=0                 lwlc=0                wlc=0                 
+ wwc=0                 wwlc=0                elm=5                 
+ kf=1.35e-24           af=0.868
+ vr=0                  cjbr=0.000877         cjsr=1.0811e-11       
+ cjgr=4.932e-10         jsdbr=3.5987e-08      jsdsr=3.4372e-13      
+ jsdgr=6.9543e-15      jsgbr=6.0153e-07      jsgsr=1.0506e-10      
+ jsggr=6.4326e-11       vdbr=0.892            vdsr=0.49482          
+ vdgr=0.79381          pb=0.426              
+ nbj=1                 nsj=1.2               
+ ngj=1
+ trdio9=27             diolev=9              

.MODEL TP pmos
+ level=49              
+ version=3.2           nqsmod=0              xw=0                  
+ xl=-2e-08             wmin=1.5e-07          wmax=1                
+ lmin=1.3e-07          lmax=1                mobmod=1              
+ capmod=3              binunit=1             js=0                  
+ jsw=0                 lint=1.5899e-08       ll=0                  
+ lln=1                 lw=0                  lwn=1                 
+ lwl=0                 wint=1.8455e-08       wl=0                  
+ wln=1                 ww=0                  wwn=1                 
+ wwl=0                 tnom=27               tox=2.35e-09          
+ cj=0                  mj=0.33               cjsw=0                
+ mjsw=0.5              
+ pbsw=1                
+ cjswg=0               mjswg=0.5             pbswg=1               
+ cgso=0                cgdo=0                cgbo=1e-12            
+ xpart=0               dwg=-2.0144e-08       nch=6.10062e+17       
+ ngate=1.9872e+20      xj=1e-07              u0=6.3231e+01
+ vth0=-0.20825         k1=0.338987           pk1=0                 
+ k2=0                  k3=-1.7947            lk3=0                 
+ k3b=3.9083            w0=4.9889e-08         nlx=8.5014e-08        
+ dvt0=2.3286           dvt1=0.52738          dvt2=0.049868         
+ dvt0w=-0.1509         dvt1w=36665           dvt2w=0.44367         
+ ua=-8.2003e-10        pua=1.5e-11           ub=1.6707e-18         
+ uc=-1.3227e-10        delta=0.023487        ldelta=0              
+ rdsw=415.14           lrdsw=0               prdsw=0               
+ prwg=0                prwb=-1.3425          wr=1                  
+ vsat=156136           a0=1.6925             la0=0                 
+ keta=-0.066788        ags=1.1642            
+ a1=6.3403             a2=0.01               b0=0                  
+ pb0=0                 b1=0                  alpha0=4.7564e-16     
+ lalpha0=0             beta0=16.59           lbeta0=-0.28619       
+ voff=-0.101317        lvoff=-0.00174674     nfactor=0.85819       
+ lnfactor=0            cdsc=0.00754104       cdscb=0               
+ cdscd=0.0016          cit=0                 eta0=0.010404         
+ etab=-0.00274117      dsub=0.145242         drout=0.61951         
+ pclm=0.50185          pdiblc1=0.0066144     pdiblc2=0.00136003    
+ pdiblcb=0             pscbe1=8e+08          pscbe2=1e-05          
+ pvag=0.3416           ute=-0.9              at=160000             
+ ua1=1.0855e-09        ub1=-1.5182e-18       uc1=8.403e-11         
+ kt1=-0.23305          kt1l=-2.2241e-09      kt2=-0.038112         
+ prt=0.14224           cgsl=3.655e-10        cgdl=3.655e-10        
+ ckappa=3.02           cf=0                  clc=1e-07             
+ cle=0.6               dlc=1.5899e-08        dwc=1.846e-08         
+ noff=1.9653           voffcv=-0.0060629     alpha1=0.023884       
+ acde=0.401            moin=5.005            llc=0                 
+ lwc=0                 lwlc=0                wlc=0                 
+ wwc=0                 wwlc=0                elm=5                 
+ kf=3.5e-24            af=0.97
+ vr=0                  cjbr=0.00085          cjsr=1.9539e-11       
+ cjgr=5.0017e-10        jsdbr=3.7342e-07      jsdsr=2.5514e-13      
+ jsdgr=1.1986e-13      jsgbr=1.0608e-06      jsgsr=6.5046e-11      
+ jsggr=1.0485e-10       vdbr=0.871            vdsr=0.70019          
+ vdgr=0.85721          pb=0.468              
+ nbj=1                 nsj=1.2               
+ ngj=1.2
+ trdio9=27             diolev=9              
