*Id-Vg Characteristics for PTFT (with BERT model) HCI and NBTI both

.option abstol=1e-6 vntol=1e-9 reltol=1e-9
.opt dcgmin=0
* --- Voltage Sources ---
vd d 0 dc 1
vg g 0 dc 1
vs s 0 dc 0

*.option nomod
* --- Transistor ---
mn1 d g s p1 W=10e-6 L=5e-6
.model p1 ptft level=36

.model p1_ra mosra mosralevel=2
*+tit0 = 5e-8 titfd = 7.5e-10 tittd = 1.45e-20 
*+tn = 0.25 

.appendmodel p1_ra mosra p1 ptft 
.mosra reltotaltime=1e+6 relmode=1

.tran 0.1ns 2ns
.print tran @mn1[id]
.end